SOLVER= RANS
KIND_TURB_MODEL= SA
KIND_TRANS_MODEL= LM
FREESTREAM_INTERMITTENCY= 1.0
FREESTREAM_TURBULENCEINTENSITY= 0.05
MACH_NUMBER= 0.8
AOA= 1.25
REF_DIMENSIONALIZATION= DIMENSIONAL
REF_LENGTH= 1.0
REF_AREA= 1.0
FREESTREAM_PRESSURE= 101325.0
FREESTREAM_TEMPERATURE= 288.15
REYNOLDS_NUMBER= 6.5E6
REYNOLDS_LENGTH= 1.0
MARKER_HEATFLUX= ( airfoil, 0.0 )
MARKER_FAR= ( farfield )
NUM_METHOD_GRAD= WEIGHTED_LEAST_SQUARES
CFL_NUMBER= 1.0
ITER= 5
LINEAR_SOLVER= FGMRES
LINEAR_SOLVER_ERROR= 1E-6
LINEAR_SOLVER_ITER= 5
CONV_NUM_METHOD_FLOW= JST
CONV_NUM_METHOD_TURB= SCALAR_UPWIND
MESH_FILENAME= ../../../QuickStart/mesh_NACA0012_inv.su2
MESH_FORMAT= SU2
SOLUTION_FILENAME= restart_flow.dat
RESTART_FILENAME= restart_flow_out.dat
RESTART_SOL= YES
CONV_FIELD= RMS_DENSITY
SCREEN_OUTPUT= (INNER_ITER, RMS_DENSITY, RMS_NU_TILDE, RMS_INTERMITTENCY, RMS_MOM_RE, LIFT, DRAG)
