 %%%%%%%%%%%%%%%%%%%%%%%%%%%%%%%%%%%%%%%%%%%%%%%%%%%%%%%%%%%%%%%%%%%%%%%%%%%%%%%%
%                                                                              %
% SU2 configuration file                                                       %
% Case description: Supersonic flow over a wedge in a channel (regression)     %
% Author: Thomas D. Economon                                                   %
% Institution: Stanford University                                             %
% Date: 2012.10.07                                                             %
% File Version 5.0.0 "Raven"                                                %
%                                                                              %
%%%%%%%%%%%%%%%%%%%%%%%%%%%%%%%%%%%%%%%%%%%%%%%%%%%%%%%%%%%%%%%%%%%%%%%%%%%%%%%%
%
% ------------- DIRECT, ADJOINT, AND LINEARIZED PROBLEM DEFINITION ------------%
MATH_PROBLEM= DIRECT
SOLVER= NEMO_EULER
KIND_TURB_MODEL= NONE
RESTART_SOL= NO
%
% ----------- COMPRESSIBLE AND INCOMPRESSIBLE FREE-STREAM DEFINITION ----------%
MACH_NUMBER= 7.68144
AOA= 0.0
SIDESLIP_ANGLE= 0.0
FREESTREAM_TEMPERATURE= 710
FREESTREAM_TEMPERATURE_VE= 710
FREESTREAM_PRESSURE= 50
INIT_OPTION= TD_CONDITIONS
%
%------------------------------- GAS MODEL ------------------------------------%
GAS_MODEL= N2
GAS_COMPOSITION= ( 0.999, 0.001)
FLUID_MODEL= SU2_NONEQ
%
% -------------------- BOUNDARY CONDITION DEFINITION --------------------------%
MARKER_SYM= ( symmetry )
MARKER_OUTLET= ( outlet, 2 )
MARKER_FAR = ( inlet )
MARKER_EULER= ( wall )
%
MARKER_PLOTTING= ( wall )
%MARKER_MONITORING= ( none )
%
% ------------- COMMON PARAMETERS DEFINING THE NUMERICAL METHOD ---------------%
NUM_METHOD_GRAD= WEIGHTED_LEAST_SQUARES
CFL_NUMBER= 0.5
RK_ALPHA_COEFF= ( 0.66667, 0.66667, 1.000000 )
LINEAR_SOLVER= FGMRES 
LINEAR_SOLVER_ERROR= 1E-6
LINEAR_SOLVER_ITER= 10
ITER= 1000000
%
% -------------------------- MULTIGRID PARAMETERS -----------------------------%
MGLEVEL= 0
%
% -------------------- FLOW NUMERICAL METHOD DEFINITION -----------------------%
CONV_NUM_METHOD_FLOW= AUSM
MUSCL_FLOW= YES
SLOPE_LIMITER_FLOW= VENKATAKRISHNAN
VENKAT_LIMITER_COEFF= 0.05
%REF_ELEM_LENGTH= 0.01
TIME_DISCRE_FLOW= EULER_EXPLICIT
%
% --------------------------- CONVERGENCE PARAMETERS --------------------------%
%CONV_CRITERIA= RESIDUAL
CONV_RESIDUAL_MINVAL= -50
CONV_STARTITER= 10
%
% ------------------------- INPUT/OUTPUT INFORMATION --------------------------%
MESH_FILENAME=pw_cyl.su2
MESH_FORMAT= SU2
SOLUTION_FILENAME= restart_flow.dat 
RESTART_FILENAME= restart_flow.dat  
CONV_FILENAME= convergence
VOLUME_FILENAME= soln_volume
SURFACE_FILENAME= soln_surface
OUTPUT_WRT_FREQ= 100
OUTPUT_FILES= (RESTART, PARAVIEW)    
SCREEN_WRT_FREQ_OUTER= 1
READ_BINARY_RESTART=YES
