%%%%%%%%%%%%%%%%%%%%%%%%%%%%%%%%%%%%%%%%%%%%%%%%%%%%%%%%%%%%%%%%%%%%%%%%%%%%%%%%
%                                                                              %
% SU2 configuration file                                                       %
% Case description: 3D, inviscid flow inside a pipe with rotating sections     %
%                   nearest neighbour approach holds at sliding interface      %
% Author: G. Gori                                                              %
% Institution: Politecnico di Milano                                           %
% Date: Oct 5th, 2016                                                          %
% File Version 8.0.0 "Harrier"                                                 %
%                                                                              %
%%%%%%%%%%%%%%%%%%%%%%%%%%%%%%%%%%%%%%%%%%%%%%%%%%%%%%%%%%%%%%%%%%%%%%%%%%%%%%%%
%
MULTIZONE= YES
CONFIG_LIST= (zone_1.cfg, zone_2.cfg, zone_3.cfg, zone_4.cfg, zone_5.cfg)
TIME_DOMAIN=YES
TIME_STEP= 0.1
TIME_ITER= 10
OUTER_ITER=200
INNER_ITER=1
%
% ------------- DIRECT, ADJOINT, AND LINEARIZED PROBLEM DEFINITION ------------%
%
SOLVER= EULER
MATH_PROBLEM= DIRECT
RESTART_SOL= NO
%
% ------------------------- UNSTEADY SIMULATION -------------------------------%
%
TIME_MARCHING= DUAL_TIME_STEPPING-2ND_ORDER
%
% -------------------- COMPRESSIBLE FREE-STREAM DEFINITION --------------------%
%
MACH_NUMBER= 3.0
AOA= 0.0
FREESTREAM_PRESSURE= 95750
FREESTREAM_TEMPERATURE= 288.15
FREESTREAM_TURBULENCEINTENSITY = 0.1
FREESTREAM_TURB2LAMVISCRATIO = 100.0
FREESTREAM_OPTION= TEMPERATURE_FS
INIT_OPTION= TD_CONDITIONS
%
% -------------------- BOUNDARY CONDITION DEFINITION --------------------------%
%
MARKER_EULER= ( intake_sidewall, component_sidewall_1, component_sidewall_2, component_sidewall_3, component_sidewall_4 )
MARKER_RIEMANN= (intake_upper_inlet, STATIC_SUPERSONIC_INFLOW_PT, 95750, 288.15, 3.0, 0.0, 0.0, intake_lower_inlet, STATIC_SUPERSONIC_INFLOW_PT, 95750, 288.15, 1.5, 0.0, 0.0, outlet_interface_4  STATIC_PRESSURE, 95750.0, 0.0, 0.0, 0.0, 0.0 )
MARKER_ZONE_INTERFACE= ( intake_interface, inlet_interface_1, outlet_interface_1, inlet_interface_2, outlet_interface_2, inlet_interface_3, outlet_interface_3, inlet_interface_4 )
MARKER_FLUID_INTERFACE= ( intake_interface, inlet_interface_1, outlet_interface_1, inlet_interface_2, outlet_interface_2, inlet_interface_3, outlet_interface_3, inlet_interface_4 )
KIND_INTERPOLATION= WEIGHTED_AVERAGE
%
% ------------- COMMON PARAMETERS DEFINING THE NUMERICAL METHOD ---------------%
%
NUM_METHOD_GRAD= WEIGHTED_LEAST_SQUARES
CFL_NUMBER= 5.0
CFL_ADAPT= NO
CFL_ADAPT_PARAM= ( 0.3, 0.5, 1.0, 1000.0)
%
% ------------------------ LINEAR SOLVER DEFINITION ---------------------------%
%
LINEAR_SOLVER= FGMRES
LINEAR_SOLVER_PREC= LU_SGS
LINEAR_SOLVER_ERROR= 1E-4
LINEAR_SOLVER_ITER= 5
%
% ----------------------- SLOPE LIMITER DEFINITION ----------------------------%
%
VENKAT_LIMITER_COEFF= 0.05
LIMITER_ITER= 999999
%
% -------------------- FLOW NUMERICAL METHOD DEFINITION -----------------------%
%
CONV_NUM_METHOD_FLOW= ROE
MUSCL_FLOW= YES
ENTROPY_FIX_COEFF= 0.001
JST_SENSOR_COEFF= ( 0.5, 0.02 )
SLOPE_LIMITER_FLOW= NONE
TIME_DISCRE_FLOW= EULER_IMPLICIT
%
% --------------------------- CONVERGENCE PARAMETERS --------------------------%
%
CONV_RESIDUAL_MINVAL= -16
CONV_STARTITER= 10
CONV_CAUCHY_ELEMS= 100
CONV_CAUCHY_EPS= 1E-6
%
% ------------------------- INPUT/OUTPUT INFORMATION --------------------------%
%
MESH_FILENAME= pipe.su2
MESH_FORMAT= SU2
MESH_OUT_FILENAME= su2mesh_per.su2
SOLUTION_FILENAME= restart_flow.dat
TABULAR_FORMAT= CSV	
CONV_FILENAME= history
RESTART_FILENAME= restart_flow.dat
VOLUME_FILENAME= flow
SURFACE_FILENAME= surface_flow
OUTPUT_WRT_FREQ= 50
