% ------------------------------- SOLVER -------------------------------- %
%
SOLVER= EULER
%
% ----------------------------- FREESTREAM ------------------------------ %
%
MACH_NUMBER= 0.02
AOA= 0.0
FREESTREAM_OPTION= TEMPERATURE_FS
FREESTREAM_PRESSURE= 101325.0
FREESTREAM_TEMPERATURE= 288.15
%
% ------------------------- UNSTEADY SIMULATION ------------------------- %
%
TIME_DOMAIN= YES
TIME_MARCHING= DUAL_TIME_STEPPING-1ST_ORDER
% The time step is ~50x too large to obtain a quasi-steady solution for
% testing.
TIME_STEP= 0.5
MAX_TIME= 5.0
INNER_ITER= 500
TIME_ITER= 2
%
% ------------------------- BOUNDARY CONDITIONS ------------------------- %
%
MARKER_EULER= ( top, slip_bottom, bottom_front, interface, bottom_rear )
MARKER_INLET= ( inlet, 288.6, 101400.0, 1.0, 0.0, 0.0 )
MARKER_OUTLET= ( outlet, 101100.0 )
MARKER_PLOTTING= ( interface )
MARKER_MONITORING= ( interface )
%
% -------------------------- MESH DEFORMATION --------------------------- %
%
DEFORM_MESH= YES
MARKER_DEFORM_MESH = ( interface )
DEFORM_STIFFNESS_TYPE= INVERSE_VOLUME
DEFORM_LINEAR_SOLVER= CONJUGATE_GRADIENT
DEFORM_LINEAR_SOLVER_PREC= ILU
DEFORM_LINEAR_SOLVER_ITER= 200
DEFORM_LINEAR_SOLVER_ERROR= 1e-9
% DEFORM_CONSOLE_OUTPUT= YES
%
% ----------------------- SPATIAL DISCRETIZATION ------------------------ %
%
NUM_METHOD_GRAD= GREEN_GAUSS
CONV_NUM_METHOD_FLOW= ROE
MUSCL_FLOW= YES
SLOPE_LIMITER_FLOW= NONE
%
% ---------- PSEUDOTIME INTEGRATION / CONVERGENCE ACCELERATION ---------- %
%
TIME_DISCRE_FLOW= EULER_IMPLICIT
CFL_NUMBER= 500
MGLEVEL= 0
LINEAR_SOLVER= FGMRES
LINEAR_SOLVER_PREC= ILU
LINEAR_SOLVER_ERROR= 0.1
LINEAR_SOLVER_ITER= 10
%
% ------------------------ CONVERGENCE CRITERIA ------------------------- %
%
CONV_FIELD= RMS_DENSITY
CONV_RESIDUAL_MINVAL= -8
%
% --------------------------- INPUT / OUTPUT ---------------------------- %
%
RESTART_SOL= NO
SCREEN_OUTPUT= ( TIME_ITER, CUR_TIME, INNER_ITER, RMS_RES, LIFT, DRAG )
MESH_FILENAME= mesh.su2
MESH_FORMAT= SU2
OUTPUT_WRT_FREQ= (5)

