%%%%%%%%%%%%%%%%%%%%%%%%%%%%%%%%%%%%%%%%%%%%%%%%%%%%%%%%%%%%%%%%%%%%%%%%%%%%%%%%
%                                                                              %
% Stanford University Unstructured (SU2) configuration file                    %
% Case description: Shape design of an RAE2822 (RANS)                          %
% Author: Francisco Palacios                                                   %
% Institution: Stanford University                                             %
% Date: 5/15/2013                                                              %
% File Version 2.0.4                                                           %
%                                                                              %
%%%%%%%%%%%%%%%%%%%%%%%%%%%%%%%%%%%%%%%%%%%%%%%%%%%%%%%%%%%%%%%%%%%%%%%%%%%%%%%%

% ------------- DIRECT, ADJOINT, AND LINEARIZED PROBLEM DEFINITION ------------%
%
% Physical governing equations (EULER, NAVIER_STOKES, NS_PLASMA)
%                               
PHYSICAL_PROBLEM= NAVIER_STOKES
%
% Specify turbulent model (NONE, SA, SST)
KIND_TURB_MODEL= SA
%
% Mathematical problem (DIRECT, ADJOINT, LINEARIZED)
MATH_PROBLEM= DIRECT
%
% Restart solution (NO, YES)
RESTART_SOL= NO

% -------------------- COMPRESSIBLE FREE-STREAM DEFINITION --------------------%
%
% Mach number (non-dimensional, based on the free-stream values)
MACH_NUMBER= 0.729
%
% Angle of attack (degrees, only for compressible flows)
AoA= 2.31
%
% Free-stream temperature (273.15 K by default)
FREESTREAM_TEMPERATURE= 273.15
%
% Reynolds number (non-dimensional, based on the free-stream values)
REYNOLDS_NUMBER= 6.5E6
%
% Reynolds length (1 m by default)
REYNOLDS_LENGTH= 1.0

% -------------- COMPRESSIBLE AND INCOMPRESSIBLE FLUID CONSTANTS --------------%
%
% Ratio of specific heats (1.4 (air), only for compressible flows)
GAMMA_VALUE= 1.4
%
% Specific gas constant (287.87 J/kg*K (air), only for compressible flows)
GAS_CONSTANT= 287.87
%
% Laminar Prandtl number (0.72 (air), only for compressible flows)
PRANDTL_LAM= 0.72
%
% Turbulent Prandtl number (0.9 (air), only for compressible flows)
PRANDTL_TURB= 0.9

% ---------------------- REFERENCE VALUE DEFINITION ---------------------------%
%
% Conversion factor for converting the grid to meters
CONVERT_TO_METER= 1.0
%
% Write a new mesh converted to meters (NO, YES)
WRITE_CONVERTED_MESH = NO
%
% Reference origin for moment computation
REF_ORIGIN_MOMENT= ( 0.25, 0.00, 0.00 )
%
% Reference length for pitching, rolling, and yawing non-dimensional moment
REF_LENGTH_MOMENT= 1.0
%
% Reference area for force coefficients (0 implies automatic calculation)
REF_AREA= 1.0
%
% Reference pressure (101325.0 N/m^2 by default, only for compressible flows)
REF_PRESSURE= 1.0
%
% Reference temperature (273.15 K by default, only for compressible flows)
REF_TEMPERATURE= 1.0
%
% Reference density (1.2886 Kg/m^3 by default, only for compressible flows)
REF_DENSITY= 1.0
%
% Reference element length for computing the slope limiter epsilon
REF_ELEM_LENGTH= 0.1

% -------------------- BOUNDARY CONDITION DEFINITION --------------------------%
%
% Navier-Stokes wall boundary marker(s) (NONE = no marker)
MARKER_HEATFLUX= ( AIRFOIL, 0.0 )
%
% Farfield boundary marker(s) (NONE = no marker)
MARKER_FAR= ( FARFIELD )
%
% Marker(s) of the surface to be plotted or designed
MARKER_PLOTTING= ( AIRFOIL )
%
% Marker(s) of the surface where the functional (Cd, Cl, etc.) will be evaluated
MARKER_MONITORING= ( AIRFOIL )

% ------------- COMMON PARAMETERS DEFINING THE NUMERICAL METHOD ---------------%
%
% Numerical method for spatial gradients (GREEN_GAUSS, WEIGHTED_LEAST_SQUARES)
NUM_METHOD_GRAD= WEIGHTED_LEAST_SQUARES
%
% Courant-Friedrichs-Lewy condition of the finest grid
CFL_NUMBER= 2.5
%
% CFL ramp (factor, number of iterations, CFL limit)
CFL_RAMP= ( 1.1, 100, 1.0 )
%
% Number of total iterations
EXT_ITER= 999999
%
% Linear solver for the implicit formulation (LU_SGS, SYM_GAUSS_SEIDEL, BCGSTAB, GMRES)
LINEAR_SOLVER= BCGSTAB
%
% Min error of the linear solver for the implicit formulation
LINEAR_SOLVER_ERROR= 1E-6
%
% Max number of iterations of the linear solver for the implicit formulation
LINEAR_SOLVER_ITER= 20

% -------------------------- MULTIGRID PARAMETERS -----------------------------%
%
% Multi-Grid Levels (0 = no multi-grid)
MGLEVEL= 3
%
% Multi-Grid Cycle (0 = V cycle, 1 = W Cycle)
MGCYCLE= 1
%
% CFL reduction factor on the coarse levels
MG_CFL_REDUCTION= 0.9
%
% Maximum number of children in the agglomeration stage
MAX_CHILDREN= 300
%
% Maximum length of an agglomerated element (relative to the domain)
MAX_DIMENSION= 0.1
%
% Multigrid pre-smoothing level
MG_PRE_SMOOTH= ( 1, 2, 3, 3 )
%
% Multigrid post-smoothing level
MG_POST_SMOOTH= ( 0, 0, 0, 0 )
%
% Jacobi implicit smoothing of the correction
MG_CORRECTION_SMOOTH= ( 0, 0, 0, 0 )
%
% Damping factor for the residual restriction
MG_DAMP_RESTRICTION= 0.95
%
% Damping factor for the correction prolongation
MG_DAMP_PROLONGATION= 0.95
%
% Full Multigrid (NO, YES)
FULLMG= NO
%
% Start up iterations using the fine grid
START_UP_ITER= 0

% -------------------- FLOW NUMERICAL METHOD DEFINITION -----------------------%
%
% Convective numerical method (JST, LAX-FRIEDRICH, ROE-1ST_ORDER, 
%                              ROE-2ND_ORDER, AUSM-1ST_ORDER, AUSM-2ND_ORDER,
%                              HLLC-1ST_ORDER, HLLC-2ND_ORDER)
CONV_NUM_METHOD_FLOW= JST
%
% Slope limiter (NONE, VENKATAKRISHNAN, BARTH)
SLOPE_LIMITER_FLOW= NONE
%
% Coefficient for the limiter (smooth regions)
LIMITER_COEFF= 0.3
%
% 1st, 2nd and 4th order artificial dissipation coefficients
AD_COEFF_FLOW= ( 0.15, 0.5, 0.02 )
%
% Viscous numerical method (AVG_GRAD, AVG_GRAD_CORRECTED, GALERKIN)
VISC_NUM_METHOD_FLOW= AVG_GRAD_CORRECTED
%
% Source term numerical method (PIECEWISE_CONSTANT)
SOUR_NUM_METHOD_FLOW= PIECEWISE_CONSTANT
%
% Time discretization (RUNGE-KUTTA_EXPLICIT, EULER_IMPLICIT, EULER_EXPLICIT)
TIME_DISCRE_FLOW= EULER_IMPLICIT

% -------------------- TURBULENT NUMERICAL METHOD DEFINITION ------------------%
%
% Convective numerical method (SCALAR_UPWIND-1ST_ORDER, 
%                              SCALAR_UPWIND-2ND_ORDER)
CONV_NUM_METHOD_TURB= SCALAR_UPWIND-1ST_ORDER
%
% Slope limiter (NONE, VENKATAKRISHNAN, BARTH)
SLOPE_LIMITER_TURB= NONE
%
% Viscous numerical method (AVG_GRAD, AVG_GRAD_CORRECTED)
VISC_NUM_METHOD_TURB= AVG_GRAD_CORRECTED
%
% Source term numerical method (PIECEWISE_CONSTANT)
SOUR_NUM_METHOD_TURB= PIECEWISE_CONSTANT
%
% Time discretization (EULER_IMPLICIT)
TIME_DISCRE_TURB= EULER_IMPLICIT

% ---------------- ADJOINT-FLOW NUMERICAL METHOD DEFINITION -------------------%
%
% Adjoint type (CONTINUOUS, DISCRETE)
ADJOINT_TYPE= CONTINUOUS
%
% Objective function type (FORCE, NON_FORCE)
ADJ_OBJFUNC_TYPE= FORCE
%
% Adjoint problem boundary condition (DRAG, LIFT, SIDEFORCE, MOMENT_X,
%                                     MOMENT_Y, MOMENT_Z, EFFICIENCY, 
%                                     EQUIVALENT_AREA, NEARFIELD_PRESSURE,
%                                     FORCE_X, FORCE_Y, FORCE_Z, THRUST, 
%                                     TORQUE, FREESURFACE)
ADJ_OBJFUNC= DRAG
%
% Convective numerical method (JST, LAX-FRIEDRICH, ROE-1ST_ORDER, 
%                              ROE-2ND_ORDER)
CONV_NUM_METHOD_ADJ= JST
%
% Slope limiter (NONE, VENKATAKRISHNAN, BARTH)
SLOPE_LIMITER_ADJFLOW= NONE
%
% 1st, 2nd, and 4th order artificial dissipation coefficients
AD_COEFF_ADJ= ( 0.15, 0.0, 0.01 )
%
% Reduction factor of the CFL coefficient in the adjoint problem
ADJ_CFL_REDUCTION= 0.75
%
% Viscous numerical method (AVG_GRAD, AVG_GRAD_CORRECTED, GALERKIN)
VISC_NUM_METHOD_ADJ= AVG_GRAD_CORRECTED
%
% Source term numerical method (PIECEWISE_CONSTANT)
SOUR_NUM_METHOD_ADJ= PIECEWISE_CONSTANT
%
% Time discretization (RUNGE-KUTTA_EXPLICIT, EULER_IMPLICIT)
TIME_DISCRE_ADJ= EULER_IMPLICIT
%
% Adjoint frozen viscosity (NO, YES)
FROZEN_VISC= YES

% --------------------------- PARTITIONING STRATEGY ---------------------------%
%
% Number of partitions of the domain
NUMBER_PART= 0
%
% Write a tecplot/paraview file for each partition (NO, YES)
VISUALIZE_PART= NO

% --------------------------- CONVERGENCE PARAMETERS --------------------------%
%
% Convergence criteria (CAUCHY, RESIDUAL)
%
CONV_CRITERIA= RESIDUAL
%
% Residual reduction (order of magnitude with respect to the initial value)
RESIDUAL_REDUCTION= 6
%
% Min value of the residual (log10 of the residual)
RESIDUAL_MINVAL= -8
%
% Start convergence criteria at iteration number
STARTCONV_ITER= 10
%
% Number of elements to apply the criteria
CAUCHY_ELEMS= 100
%
% Epsilon to control the series convergence
CAUCHY_EPS= 1E-6
%
% Function to apply the criteria (LIFT, DRAG, NEARFIELD_PRESS, SENS_GEOMETRY, 
% 	      	    		 SENS_MACH, DELTA_LIFT, DELTA_DRAG)
CAUCHY_FUNC_FLOW= DRAG
CAUCHY_FUNC_ADJ= SENS_GEOMETRY
CAUCHY_FUNC_LIN= DELTA_DRAG
%
% Epsilon for full multigrid method evaluation
FULLMG_CAUCHY_EPS= 1E-4

% ------------------------- INPUT/OUTPUT INFORMATION --------------------------%
%
% Mesh input file
MESH_FILENAME= mesh_RAE2822_turb.su2
%
% Mesh input file format (SU2, CGNS, NETCDF_ASCII)
MESH_FORMAT= SU2
%
% Divide rectangles into triangles (NO, YES)
DIVIDE_ELEMENTS= NO
%
% Convert a CGNS mesh to SU2 format (YES, NO)
CGNS_TO_SU2= NO
%
% Mesh output file
MESH_OUT_FILENAME= mesh_out.su2
%
% Restart flow input file
SOLUTION_FLOW_FILENAME= solution_flow.dat
%
% Restart linear flow input file
SOLUTION_LIN_FILENAME= solution_lin.dat
%
% Restart adjoint input file
SOLUTION_ADJ_FILENAME= solution_adj.dat
%
% Output file format (PARAVIEW, TECPLOT, STL)
OUTPUT_FORMAT= TECPLOT
%
% Output file convergence history (w/o extension) 
CONV_FILENAME= history
%
% Output file restart flow
RESTART_FLOW_FILENAME= restart_flow.dat
%
% Output file restart adjoint
RESTART_ADJ_FILENAME= restart_adj.dat
%
% Output file linear flow
RESTART_LIN_FILENAME= restart_lin.dat
%
% Output file flow (w/o extension) variables
VOLUME_FLOW_FILENAME= flow
%
% Output file adjoint (w/o extension) variables
VOLUME_ADJ_FILENAME= adjoint
%
% Output file linearized (w/o extension) variables
VOLUME_LIN_FILENAME= linearized
%
% Output objective function gradient (using continuous adjoint)
GRAD_OBJFUNC_FILENAME= of_grad.dat
%
% Output file surface flow coefficient (w/o extension)
SURFACE_FLOW_FILENAME= surface_flow
%
% Output file surface adjoint coefficient (w/o extension)
SURFACE_ADJ_FILENAME= surface_adjoint
%
% Output file surface linear coefficient (w/o extension)
SURFACE_LIN_FILENAME= surface_linear
%
% Writing solution file frequency
WRT_SOL_FREQ= 250
%
% Writing convergence history frequency
WRT_CON_FREQ= 1

% ------------------------ GRID DEFORMATION PARAMETERS ------------------------%
%
% Kind of deformation (NO_DEFORMATION, HICKS_HENNE, PARABOLIC, NACA_4DIGITS, 
%                      DISPLACEMENT, ROTATION, FFD_CONTROL_POINT, 
%                      FFD_DIHEDRAL_ANGLE, FFD_TWIST_ANGLE, 
%                      FFD_ROTATION, FFD_CAMBER, FFD_THICKNESS, FFD_VOLUME
%                      SURFACE_FILE)
DV_KIND= NO_DEFORMATION
%
% Marker of the surface to which we are going apply the shape deformation
DV_MARKER= ( airfoil )
%
% Parameters of the shape deformation 
% 	- HICKS_HENNE ( Lower Surface (0)/Upper Surface (1)/Only one Surface (2), x_Loc )
% 	- NACA_4DIGITS ( 1st digit, 2nd digit, 3rd and 4th digit )
% 	- PARABOLIC ( Center, Thickness )
% 	- DISPLACEMENT ( x_Disp, y_Disp, z_Disp )
% 	- ROTATION ( x_Orig, y_Orig, z_Orig, x_End, y_End, z_End )
% 	- OBSTACLE ( Center, Bump size )
% 	- FFD_CONTROL_POINT ( Chunk ID, i_Ind, j_Ind, k_Ind, x_Disp, y_Disp, z_Disp )
% 	- FFD_DIHEDRAL_ANGLE ( Chunk ID, x_Orig, y_Orig, z_Orig, x_End, y_End, z_End )
% 	- FFD_TWIST_ANGLE ( Chunk ID, x_Orig, y_Orig, z_Orig, x_End, y_End, z_End )
% 	- FFD_ROTATION ( Chunk ID, x_Orig, y_Orig, z_Orig, x_End, y_End, z_End )
% 	- FFD_CAMBER ( Chunk ID, i_Ind, j_Ind )
% 	- FFD_THICKNESS ( Chunk ID, i_Ind, j_Ind )
% 	- FFD_VOLUME ( Chunk ID, i_Ind, j_Ind )
DV_PARAM= ( 1, 0.5 )
%
% Old value of the deformation for incremental deformations
DV_VALUE_OLD= 0.0
%
% New value of the shape deformation
DV_VALUE_NEW= 0.01
%
% Grid deformation technique (SPRING, FEA)
GRID_DEFORM_METHOD= FEA
%
% Maximum error in the grid deformation
GRID_DEFORM_ERROR= 1E-14
%
% Hold the grid fixed in a region (NO, YES)
HOLD_GRID_FIXED= NO
%
% Coordinates of the box where the grid will be deformed (Xmin, Ymin, Zmin, 
%                                                         Xmax, Ymax, Zmax)
HOLD_GRID_FIXED_COORD= ( -0.5, -0.49, 0.0, 2.5, 0.49, 0.0 )
%
% Visualize the deformation (NO, YES)
VISUALIZE_DEFORMATION= NO
%
% Surface deformation input filename
MOTION_FILENAME= mesh_motion.dat

% --------------------- OPTIMAL SHAPE DESIGN DEFINITION -----------------------%
% Available Objective functions 
%    DRAG, LIFT, SIDEFORCE, PRESSURE, FORCE_X, FORCE_Y,
%    FORCE_Z, MOMENT_X, MOMENT_Y, MOMENT_Z, EFFICIENCY, 
%    EQUIVALENT_AREA, THRUST, TORQUE, FREESURFACE

% Optimization objective function with optional scaling factor
% ex= Objective * Scale
OPT_OBJECTIVE= DRAG * 0.001

% Optimization constraint functions with scaling factors, separated by semicolons
% ex= (Objective = Value ) * Scale, use '>','<','='
OPT_CONSTRAINT= NONE

% List of design variables (Design variables are separated by semicolons)
%  - HICKS_HENNE ( 1, Scale | Mark. List | Lower(0)/Upper(1) side, x_Loc )
%  - NACA_4DIGITS ( 4, Scale | Mark. List |  1st digit, 2nd digit, 3rd and 4th digit )
%  - DISPLACEMENT ( 5, Scale | Mark. List | x_Disp, y_Disp, z_Disp )
%  - ROTATION ( 6, Scale | Mark. List | x_Axis, y_Axis, z_Axis, x_Turn, y_Turn, z_Turn )
%  - FFD_CONTROL_POINT ( 7, Scale | Mark. List | Chunk, i_Ind, j_Ind, k_Ind, x_Mov, y_Mov, z_Mov )
%  - FFD_DIHEDRAL_ANGLE ( 8, Scale | Mark. List | Chunk, x_Orig, y_Orig, z_Orig, x_End, y_End, z_End )
%  - FFD_TWIST_ANGLE ( 9, Scale | Mark. List | Chunk, x_Orig, y_Orig, z_Orig, x_End, y_End, z_End )
%  - FFD_ROTATION ( 10, Scale | Mark. List | Chunk, x_Orig, y_Orig, z_Orig, x_End, y_End, z_End )
%  - FFD_CAMBER ( 11, Scale | Mark. List | Chunk, i_Ind, j_Ind )
%  - FFD_THICKNESS ( 12, Scale | Mark. List | Chunk, i_Ind, j_Ind )
%  - FFD_VOLUME ( 13, Scale | Mark. List | Chunk, i_Ind, j_Ind )
DEFINITION_DV= ( 1, 1.0 | AIRFOIL | 0, 0.05 ); ( 1, 1.0 | AIRFOIL | 0, 0.10 ); ( 1, 1.0 | AIRFOIL | 0, 0.15 ); ( 1, 1.0 | AIRFOIL | 0, 0.20 ); ( 1, 1.0 | AIRFOIL | 0, 0.25 ); ( 1, 1.0 | AIRFOIL | 0, 0.30 ); ( 1, 1.0 | AIRFOIL | 0, 0.35 ); ( 1, 1.0 | AIRFOIL | 0, 0.40 ); ( 1, 1.0 | AIRFOIL | 0, 0.45 ); ( 1, 1.0 | AIRFOIL | 0, 0.50 ); ( 1, 1.0 | AIRFOIL | 0, 0.55 ); ( 1, 1.0 | AIRFOIL | 0, 0.60 ); ( 1, 1.0 | AIRFOIL | 0, 0.65 ); ( 1, 1.0 | AIRFOIL | 0, 0.70 ); ( 1, 1.0 | AIRFOIL | 0, 0.75 ); ( 1, 1.0 | AIRFOIL | 0, 0.80 ); ( 1, 1.0 | AIRFOIL | 0, 0.85 ); ( 1, 1.0 | AIRFOIL | 0, 0.90 ); ( 1, 1.0 | AIRFOIL | 0, 0.95 ); ( 1, 1.0 | AIRFOIL | 1, 0.05 ); ( 1, 1.0 | AIRFOIL | 1, 0.10 ); ( 1, 1.0 | AIRFOIL | 1, 0.15 ); ( 1, 1.0 | AIRFOIL | 1, 0.20 ); ( 1, 1.0 | AIRFOIL | 1, 0.25 ); ( 1, 1.0 | AIRFOIL | 1, 0.30 ); ( 1, 1.0 | AIRFOIL | 1, 0.35 ); ( 1, 1.0 | AIRFOIL | 1, 0.40 ); ( 1, 1.0 | AIRFOIL | 1, 0.45 ); ( 1, 1.0 | AIRFOIL | 1, 0.50 ); ( 1, 1.0 | AIRFOIL | 1, 0.55 ); ( 1, 1.0 | AIRFOIL | 1, 0.60 ); ( 1, 1.0 | AIRFOIL | 1, 0.65 ); ( 1, 1.0 | AIRFOIL | 1, 0.70 ); ( 1, 1.0 | AIRFOIL | 1, 0.75 ); ( 1, 1.0 | AIRFOIL | 1, 0.80 ); ( 1, 1.0 | AIRFOIL | 1, 0.85 ); ( 1, 1.0 | AIRFOIL | 1, 0.90 ); ( 1, 1.0 | AIRFOIL | 1, 0.95 )

