%%%%%%%%%%%%%%%%%%%%%%%%%%%%%%%%%%%%%%%%%%%%%%%%%%%%%%%%%%%%%%%%%%%%%%%%%%%%%%%%%
%                                                                               %
% SU2 configuration file                                                        %
% Case description: 2 fluid zones with species transport (3 species)            %
% Author: N. Beishuizen                                                         %
% Institution: Technische Universiteit Eindhoven                                %
% Date: November 1, 2022                                                        %
% File Version 7.4.0 "Blackbird"                                                %
%                                                                               %
%%%%%%%%%%%%%%%%%%%%%%%%%%%%%%%%%%%%%%%%%%%%%%%%%%%%%%%%%%%%%%%%%%%%%%%%%%%%%%%%%
%
SOLVER= MULTIPHYSICS
RESTART_SOL= YES
CONFIG_LIST = (zone1.cfg, zone2.cfg)
MARKER_ZONE_INTERFACE=  (ILEFT, IRIGHT)
MARKER_FLUID_INTERFACE= (ILEFT, IRIGHT)
OUTER_ITER = 1000
%
MESH_FILENAME= primitiveVenturi_MZ.su2
MESH_FORMAT= SU2
OUTPUT_FILES= (RESTART, PARAVIEW_MULTIBLOCK )
OUTPUT_WRT_FREQ= (100,200)
VOLUME_OUTPUT= COORDINATES, SOLUTION
%HISTORY_OUTPUT= ITER FLOW_COEFF 
