%%%%%%%%%%%%%%%%%%%%%%%%%%%%%%%%%%%%%%%%%%%%%%%%%%%%%%%%%%%%%%%%%%%%%%%%%%%%%%%%%
%                                                                               %
% SU2 configuration file                                                        %
% Case description: 2 fluid zones with species transport (3 species)            %
% Author: N. Beishuizen                                                         %
% Institution: Technische Universiteit Eindhoven                                %
% Date: November 1, 2022                                                        %
% File Version 8.0.0 "Harrier"                                                  %
%                                                                               %
%%%%%%%%%%%%%%%%%%%%%%%%%%%%%%%%%%%%%%%%%%%%%%%%%%%%%%%%%%%%%%%%%%%%%%%%%%%%%%%%%
%
SOLVER= MULTIPHYSICS
RESTART_SOL= YES
CONFIG_LIST = (zone1.cfg, zone2.cfg)
MARKER_ZONE_INTERFACE=  (ILEFT, IRIGHT)
MARKER_FLUID_INTERFACE= (ILEFT, IRIGHT)
OUTER_ITER = 100
%
% ------------- COMMON PARAMETERS DEFINING THE NUMERICAL METHOD ---------------%
%
NUM_METHOD_GRAD= GREEN_GAUSS
CFL_NUMBER= 1000.0
CFL_ADAPT= NO
%
% ------------------------ LINEAR SOLVER DEFINITION ---------------------------%
%
LINEAR_SOLVER= FGMRES
LINEAR_SOLVER_PREC= ILU
LINEAR_SOLVER_ERROR= 1E-15
LINEAR_SOLVER_ITER= 5
%
% -------------------- FLOW NUMERICAL METHOD DEFINITION -----------------------%
%
CONV_NUM_METHOD_FLOW= FDS
MUSCL_FLOW= YES
SLOPE_LIMITER_FLOW= NONE
TIME_DISCRE_FLOW= EULER_IMPLICIT
%
% -------------------- SCALAR TRANSPORT ---------------------------------------%
%
KIND_SCALAR_MODEL= SPECIES_TRANSPORT
DIFFUSIVITY_MODEL= CONSTANT_DIFFUSIVITY
DIFFUSIVITY_CONSTANT= 0.001
CONV_NUM_METHOD_SPECIES= SCALAR_UPWIND
MUSCL_SPECIES= NO
SLOPE_LIMITER_SPECIES = NONE
SPECIES_INIT= 1.0, 0.0
SPECIES_CLIPPING= YES
SPECIES_CLIPPING_MIN= 0.0, 0.0
SPECIES_CLIPPING_MAX= 1.0, 1.0
%
% -------------------- TURBULENT TRANSPORT ---------------------------------------%
%
CONV_NUM_METHOD_TURB= SCALAR_UPWIND
MUSCL_TURB= NO
TIME_DISCRE_SPECIES= EULER_IMPLICIT
%
% --------------------------- CONVERGENCE PARAMETERS --------------------------%
%
CONV_FIELD= RMS_PRESSURE, RMS_VELOCITY-X, RMS_VELOCITY-Y, RMS_TKE
CONV_RESIDUAL_MINVAL= -18
CONV_STARTITER= 10
%
% ------------------------- INPUT/OUTPUT INFORMATION --------------------------%
%
MESH_FILENAME= primitiveVenturi_MZ.su2
MESH_FORMAT= SU2
OUTPUT_FILES= (RESTART, PARAVIEW_MULTIBLOCK )
OUTPUT_WRT_FREQ= (100,200)
VOLUME_OUTPUT= COORDINATES, SOLUTION
MARKER_ANALYZE= air_axial_inlet1, gas_inlet1
MARKER_ANALYZE_AVERAGE=MASSFLUX
