%%%%%%%%%%%%%%%%%%%%%%%%%%%%%%%%%%%%%%%%%%%%%%%%%%%%%%%%%%%%%%%%%%%%%%%%%%%%%%%%
%                                                                              %
% SU2 configuration file                                                       %
% Case description: Tutorial for FSI applications                              %
% Author: Ruben Sanchez Fernandez                                              %
% Institution: Imperial College London                                         %
% Date: 2016.06.01                                                             %
% File Version 4.3.0 "cardinal"                                                %
%                                                                              %
%%%%%%%%%%%%%%%%%%%%%%%%%%%%%%%%%%%%%%%%%%%%%%%%%%%%%%%%%%%%%%%%%%%%%%%%%%%%%%%%

% ------------- DIRECT, ADJOINT, AND LINEARIZED PROBLEM DEFINITION ------------%
%
% Physical governing equations (EULER, NAVIER_STOKES,
%                               TNE2_EULER, TNE2_NAVIER_STOKES,
%                               WAVE_EQUATION, HEAT_EQUATION, LINEAR_ELASTICITY,
%                               POISSON_EQUATION)
SOLVER= FLUID_STRUCTURE_INTERACTION
%
FSI_FLUID_PROBLEM = NAVIER_STOKES
%
FSI_STRUCTURAL_PROBLEM = ELASTICITY
%
% If Navier-Stokes, kind of turbulent model (NONE, SA)
KIND_TURB_MODEL= NONE
%
% Mathematical problem (DIRECT, ADJOINT, LINEARIZED, ONE_SHOT_ADJOINT)
MATH_PROBLEM= DIRECT
%
% Restart solution (NO, YES)
RESTART_SOL= YES
%
% Unsteady restart iteration (need previous restart files)
RESTART_ITER= 2
%
% Restart the solution from a steady state solution (sets Grid Vel to 0)
RESTART_STEADY_STATE = NO

% -----------------------------------------------------------------------------%
% ---------------------- FLUID STRUCTURE INTERACTION --------------------------%
% -----------------------------------------------------------------------------%

% --------------------------- MESH INPUT FILE ---------------------------------%
%
% Mesh input file format (SU2, CGNS NETCDF_ASCII)
MESH_FORMAT= SU2
%
% Mesh input file
MESH_FILENAME= mesh.su2

% ------------------------------- TIME STEP -----------------------------------%
%
% Time Step for dual time stepping fluid simulations (s)
TIME_STEP= 0.01
%
% Number of total iterations
TIME_ITER= 35

% --------------------------- FSI CONVERGENCE ---------------------------------%
%
% Number of Fluid Structure Interaction subiterations
FSI_ITER= 10
%
% Relaxation for the block Gauss Seidel Method
BGS_RELAXATION = FIXED_PARAMETER
%
% Relaxation parameter
STAT_RELAX_PARAMETER= 0.7
%
%
% Min value of the residual in the boundary displacement (log10 of the residual)
CONV_RESIDUAL_MINVAL_FSI= -5.92

% -------------------------- BOUNDARY CONDITIONS ------------------------------%
%
% Marker interface
MARKER_ZONE_INTERFACE = (UpperBeam, UpperBeamS, RightBeam, RightBeamS, LowerBeam, LowerBeamS)

% -----------------------------------------------------------------------------%
% ------------------------- STRUCTURAL DYNAMICS -------------------------------%
% -----------------------------------------------------------------------------%

% -------------------------- PROBLEM DEFINITION -------------------------------%
%
% Geometric conditions
GEOMETRIC_CONDITIONS= LARGE_DEFORMATIONS
%
% Material model
MATERIAL_MODEL= NEO_HOOKEAN

% --------------------------- MATERIAL CONSTANTS ------------------------------%
%
% Value of the Elasticity modulus
ELASTICITY_MODULUS=1.25E5
%
% Value of the Poisson ratio
POISSON_RATIO=0.35
%
% Value of the material density
MATERIAL_DENSITY=50
%
% Elasticity formulation for 2D problems
FORMULATION_ELASTICITY_2D = PLANE_STRESS

% -------------------------- CONVERGENCE CRITERIA -----------------------------%
%
% Maximum number of subiterations for the structural solver
NONLINEAR_FEM_INT_ITER = 20
%
% Convergence tolerances

% -------------------------- DYNAMIC SIMULATION -------------------------------%
%
% Dynamic structural analysis
DYNAMIC_ANALYSIS= YES
%
% Time discretization
TIME_DISCRE_FEA= NEWMARK_IMPLICIT
%
% Newmark parameters
NEWMARK_BETA=0.2601
NEWMARK_GAMMA=0.52

% -------------------- BOUNDARY CONDITION DEFINITION --------------------------%
%
% Clamped boundary marker(s)
MARKER_CLAMPED = ( Clamped )
%
% Load boundary marker(s)
MARKER_PRESSURE= ( RightBeamS , 0, LowerBeamS, 0, UpperBeamS, 0)

% -----------------------------------------------------------------------------%
% ---------------------------- FLUID DYNAMICS ---------------------------------%
% -----------------------------------------------------------------------------%

% ------------------------- UNSTEADY SIMULATION -------------------------------%
%
% Unsteady simulation (NO, TIME_STEPPING, DUAL_TIME_STEPPING-1ST_ORDER, 
%                      DUAL_TIME_STEPPING-2ND_ORDER, TIME_SPECTRAL)
TIME_MARCHING= DUAL_TIME_STEPPING-2ND_ORDER
%
% Total Physical Time for dual time stepping simulations (s)
UNST_TIME= 1.0

% --------------------------- FLOW CONVERGENCE --------------------------------%
%
% Number of internal iterations (dual time method)
UNST_INT_ITER= 1000

% ----------- COMPRESSIBLE AND INCOMPRESSIBLE FREE-STREAM DEFINITION ----------%
%
% Angle of attack (degrees)
AOA= 0.0
%
% Side-slip angle (degrees)
SIDESLIP_ANGLE= 0.0
%
% Reynolds number (non-dimensional, based on the free-stream values)
REYNOLDS_NUMBER= 180
%
% Mach number
MACH_NUMBER = 0.15
MACH_MOTION = 0.15
%
% Fix the value of the density and viscosity of the flow
FREESTREAM_OPTION = DENSITY_FS
FREESTREAM_DENSITY = 1.18
VISCOSITY_MODEL = CONSTANT_VISCOSITY
MU_CONSTANT = 1.82E-5
%
% Initialization option
INIT_OPTION = TD_CONDITIONS
%
% Freestream pressure and temperature
FREESTREAM_PRESSURE = 2.8873220339
FREESTREAM_TEMPERATURE = 0.0085240024

% ---------------------- REFERENCE VALUE DEFINITION ---------------------------%
%
% Reference origin for moment computation
REF_ORIGIN_MOMENT_X = 0.00
REF_ORIGIN_MOMENT_Y = 0.00
REF_ORIGIN_MOMENT_Z = 0.00
%
% Reference length for pitching, rolling, and yawing non-dimensional moment
REF_LENGTH= 0.01
%
% Reference area for force coefficients (0 implies automatic calculation)
REF_AREA= 0.01
%
% Length to compute the Reynolds number
REYNOLDS_LENGTH=0.01

% -------------------- BOUNDARY CONDITION DEFINITION --------------------------%
%
% Navier-Stokes wall boundary marker(s)
MARKER_HEATFLUX= ( Square, 0.0, UpperBeam, 0.0, RightBeam, 0.0, LowerBeam, 0.0 )
%
% Inlet boundary marker(s)
% Format: ( inlet marker, total temperature, total pressure, flow_direction_x,
%           flow_direction_y, flow_direction_z, ... ) where flow_direction is
%           a unit vector.
MARKER_INLET= ( Inlet, 0.0085240024, 2.9330537305, 1.0, 0.0, 0.0 )
%
% Outlet boundary marker(s)
% Format: ( outlet marker, back pressure (static), ... )
MARKER_OUTLET= ( Outlet, 2.8873220339)
%
% Euler boundary marker(s)
MARKER_EULER= ( Upper, Lower )


% ------------------------ MARKER MONITORING ----------------------------------%
%
% Marker(s) of the surface to be plotted or designed
MARKER_PLOTTING= ( UpperBeam, RightBeam, LowerBeam)
%
% Marker(s) of the surface where the functional (Cd, Cl, etc.) will be evaluated
MARKER_MONITORING= ( UpperBeam, RightBeam, LowerBeam)

% -----------------------------------------------------------------------------%
% --------------------------- INPUT / OUTPUT ----------------------------------%
% -----------------------------------------------------------------------------%
%
TABULAR_FORMAT= CSV
%
% Output file flow (w/o extension) variables
VOLUME_FILENAME= results_flow
%
% Output file name (PARAVIEW, TECPLOT)
VOLUME_STRUCTURE_FILENAME= results_beam
%
% Output file convergence history (w/o extension) 
CONV_FILENAME= history
%
% Forces breakdown file
BREAKDOWN_FILENAME= forces_breakdown.dat
%
% Restart flow input file
SOLUTION_FILENAME= solution_flow.dat
%
% Output file name (PARAVIEW, TECPLOT)
SOLUTION_STRUCTURE_FILENAME= solution_beam.dat
%
% Output file restart flow
RESTART_FILENAME= restart_flow.dat
%
% Output file restart flow
RESTART_STRUCTURE_FILENAME= restart_beam.dat
%
%
% Writing solution file frequency for physical time steps (dual time)
OUTPUT_WRT_FREQ= 1

% -----------------------------------------------------------------------------%
% --------------------------- MESH PARAMETERS ---------------------------------%
% -----------------------------------------------------------------------------%
%
% Maximum number of iterations when solving the mesh update
DEFORM_LINEAR_SOLVER_ITER= 500
%
% Steps in the mesh updating
DEFORM_NONLINEAR_ITER= 1

% -----------------------------------------------------------------------------%
% -------------------------- COMMON PARAMETERS --------------------------------%
% -----------------------------------------------------------------------------%

% ------------- COMMON PARAMETERS DEFINING THE NUMERICAL METHOD ---------------%
%
% Numerical method for spatial gradients (GREEN_GAUSS, LEAST_SQUARES, 
%                                         WEIGHTED_LEAST_SQUARES)
NUM_METHOD_GRAD= WEIGHTED_LEAST_SQUARES
%
% Courant-Friedrichs-Lewy condition of the finest grid
CFL_NUMBER= 1.0
%
% Runge-Kutta alpha coefficients
RK_ALPHA_COEFF= ( 0.66667, 0.66667, 1.000000 )
%

% ------------------------ LINEAR SOLVER DEFINITION ---------------------------%
%
% Linear solver for the implicit (or discrete adjoint) formulation (BCGSTAB, FGMRES)
LINEAR_SOLVER= FGMRES
%
% Preconditioner of the Krylov linear solver (JACOBI, LINELET, LU_SGS)
LINEAR_SOLVER_PREC= LU_SGS
%
% Min error of the linear solver for the implicit formulation
LINEAR_SOLVER_ERROR= 1E-6
%
% Max number of iterations of the linear solver for the implicit formulation
LINEAR_SOLVER_ITER= 2
%
% Linear solver for the implicit formulation (BCGSTAB, FGMRES)
FSI_LINEAR_SOLVER_STRUC= FGMRES
%
% Preconditioner for the structural problem
FSI_LINEAR_SOLVER_PREC_STRUC= LU_SGS
%
% Min error of the linear solver for the implicit formulation
FSI_LINEAR_SOLVER_ERROR_STRUC= 1E-7
%
% Number of iterations for the linear solver for the structural problem
FSI_LINEAR_SOLVER_ITER_STRUC = 1000


% -------------------- FLOW NUMERICAL METHOD DEFINITION -----------------------%
%
% Convective numerical method (JST, LAX-FRIEDRICH, CUSP, ROE, AUSM, HLLC,
%                              TURKEL_PREC, MSW)
CONV_NUM_METHOD_FLOW= ROE
%
% Spatial numerical order integration (1ST_ORDER, 2ND_ORDER, 2ND_ORDER_LIMITER)
MUSCL_FLOW= YES
%
% Coefficient for the limiter
VENKAT_LIMITER_COEFF= 1.0
%
% 2nd and 4th order artificial dissipation coefficients
JST_SENSOR_COEFF= ( 0.5, 0.02 )
%
% Time discretization (RUNGE-KUTTA_EXPLICIT, EULER_IMPLICIT, EULER_EXPLICIT)
TIME_DISCRE_FLOW= EULER_IMPLICIT

% --------------------------- CONVERGENCE PARAMETERS --------------------------%
%
% Min value of the residual (log10 of the residual)
CONV_RESIDUAL_MINVAL= -10
%
% Start convergence criteria at iteration number
CONV_STARTITER= 10
%
% Number of elements to apply the criteria
CONV_CAUCHY_ELEMS= 100
%
% Epsilon to control the series convergence
CONV_CAUCHY_EPS= 1E-5
%

