%%%%%%%%%%%%%%%%%%%%%%%%%%%%%%%%%%%%%%%%%%%%%%%%%%%%%%%%%%%%%%%%%%%%%%%%%%%%%%%%
%                                                                              %
% SU2 configuration file                                                       %
% Case description: Tutorial for FSI applications                              %
% Author: Ruben Sanchez Fernandez                                              %
% Institution: Imperial College London                                         %
% Date: 2016.06.01                                                             %
% File Version 8.0.0 "Harrier"                                                 %
%                                                                              %
%%%%%%%%%%%%%%%%%%%%%%%%%%%%%%%%%%%%%%%%%%%%%%%%%%%%%%%%%%%%%%%%%%%%%%%%%%%%%%%%

% ------------- DIRECT, ADJOINT, AND LINEARIZED PROBLEM DEFINITION ------------%
%
SOLVER= FLUID_STRUCTURE_INTERACTION
FSI_FLUID_PROBLEM = NAVIER_STOKES
FSI_STRUCTURAL_PROBLEM = ELASTICITY
KIND_TURB_MODEL= NONE
MATH_PROBLEM= DIRECT
RESTART_SOL= YES
RESTART_ITER= 2
RESTART_STEADY_STATE = NO

% -----------------------------------------------------------------------------%
% ---------------------- FLUID STRUCTURE INTERACTION --------------------------%
% -----------------------------------------------------------------------------%

% --------------------------- MESH INPUT FILE ---------------------------------%
%
MESH_FORMAT= SU2
MESH_FILENAME= mesh.su2

% ------------------------------- TIME STEP -----------------------------------%
%
TIME_STEP= 0.01
TIME_ITER= 35

% --------------------------- FSI CONVERGENCE ---------------------------------%
%
FSI_ITER= 10
BGS_RELAXATION = FIXED_PARAMETER
STAT_RELAX_PARAMETER= 0.7
CONV_RESIDUAL_MINVAL_FSI= -5.92

% -------------------------- BOUNDARY CONDITIONS ------------------------------%
%
MARKER_ZONE_INTERFACE = (UpperBeam, UpperBeamS, RightBeam, RightBeamS, LowerBeam, LowerBeamS)

% -----------------------------------------------------------------------------%
% ------------------------- STRUCTURAL DYNAMICS -------------------------------%
% -----------------------------------------------------------------------------%

% -------------------------- PROBLEM DEFINITION -------------------------------%
%
GEOMETRIC_CONDITIONS= LARGE_DEFORMATIONS
MATERIAL_MODEL= NEO_HOOKEAN

% --------------------------- MATERIAL CONSTANTS ------------------------------%
%
ELASTICITY_MODULUS=1.25E5
POISSON_RATIO=0.35
MATERIAL_DENSITY=50
FORMULATION_ELASTICITY_2D = PLANE_STRESS

% -------------------------- CONVERGENCE CRITERIA -----------------------------%
%
NONLINEAR_FEM_INT_ITER = 20

% -------------------------- DYNAMIC SIMULATION -------------------------------%
%
TIME_DOMAIN= YES
TIME_DISCRE_FEA= NEWMARK_IMPLICIT
NEWMARK_BETA=0.2601
NEWMARK_GAMMA=0.52

% -------------------- BOUNDARY CONDITION DEFINITION --------------------------%
%
MARKER_CLAMPED = ( Clamped )
MARKER_PRESSURE= ( RightBeamS , 0, LowerBeamS, 0, UpperBeamS, 0)

% -----------------------------------------------------------------------------%
% ---------------------------- FLUID DYNAMICS ---------------------------------%
% -----------------------------------------------------------------------------%

% ------------------------- UNSTEADY SIMULATION -------------------------------%
%
TIME_MARCHING= DUAL_TIME_STEPPING-2ND_ORDER
UNST_TIME= 1.0

% --------------------------- FLOW CONVERGENCE --------------------------------%
%
UNST_INT_ITER= 1000

% ----------- COMPRESSIBLE AND INCOMPRESSIBLE FREE-STREAM DEFINITION ----------%
%
AOA= 0.0
SIDESLIP_ANGLE= 0.0
REYNOLDS_NUMBER= 180
MACH_NUMBER = 0.15
MACH_MOTION = 0.15
FREESTREAM_OPTION = DENSITY_FS
FREESTREAM_DENSITY = 1.18
VISCOSITY_MODEL = CONSTANT_VISCOSITY
MU_CONSTANT = 1.82E-5
INIT_OPTION = TD_CONDITIONS
FREESTREAM_PRESSURE = 2.8873220339
FREESTREAM_TEMPERATURE = 0.0085240024

% ---------------------- REFERENCE VALUE DEFINITION ---------------------------%
%
REF_ORIGIN_MOMENT_X = 0.00
REF_ORIGIN_MOMENT_Y = 0.00
REF_ORIGIN_MOMENT_Z = 0.00
REF_LENGTH= 0.01
REF_AREA= 0.01
REYNOLDS_LENGTH=0.01

% -------------------- BOUNDARY CONDITION DEFINITION --------------------------%
%
MARKER_HEATFLUX= ( Square, 0.0, UpperBeam, 0.0, RightBeam, 0.0, LowerBeam, 0.0 )
MARKER_INLET= ( Inlet, 0.0085240024, 2.9330537305, 1.0, 0.0, 0.0 )
MARKER_OUTLET= ( Outlet, 2.8873220339)
MARKER_EULER= ( Upper, Lower )


% ------------------------ MARKER MONITORING ----------------------------------%
%
MARKER_PLOTTING= ( UpperBeam, RightBeam, LowerBeam)
MARKER_MONITORING= ( UpperBeam, RightBeam, LowerBeam)

% -----------------------------------------------------------------------------%
% --------------------------- INPUT / OUTPUT ----------------------------------%
% -----------------------------------------------------------------------------%
%
TABULAR_FORMAT= CSV
VOLUME_FILENAME= results_flow
VOLUME_STRUCTURE_FILENAME= results_beam
CONV_FILENAME= history
BREAKDOWN_FILENAME= forces_breakdown.dat
SOLUTION_FILENAME= solution_flow.dat
SOLUTION_STRUCTURE_FILENAME= solution_beam.dat
RESTART_FILENAME= restart_flow.dat
RESTART_STRUCTURE_FILENAME= restart_beam.dat
OUTPUT_WRT_FREQ= 1

% -----------------------------------------------------------------------------%
% --------------------------- MESH PARAMETERS ---------------------------------%
% -----------------------------------------------------------------------------%
%
DEFORM_LINEAR_SOLVER_ITER= 500
DEFORM_NONLINEAR_ITER= 1

% -----------------------------------------------------------------------------%
% -------------------------- COMMON PARAMETERS --------------------------------%
% -----------------------------------------------------------------------------%

% ------------- COMMON PARAMETERS DEFINING THE NUMERICAL METHOD ---------------%
%
NUM_METHOD_GRAD= WEIGHTED_LEAST_SQUARES
CFL_NUMBER= 1.0
RK_ALPHA_COEFF= ( 0.66667, 0.66667, 1.000000 )

% ------------------------ LINEAR SOLVER DEFINITION ---------------------------%
%
LINEAR_SOLVER= FGMRES
LINEAR_SOLVER_PREC= LU_SGS
LINEAR_SOLVER_ERROR= 1E-6
LINEAR_SOLVER_ITER= 2
FSI_LINEAR_SOLVER_STRUC= FGMRES
FSI_LINEAR_SOLVER_PREC_STRUC= LU_SGS
FSI_LINEAR_SOLVER_ERROR_STRUC= 1E-7
FSI_LINEAR_SOLVER_ITER_STRUC = 1000

% -------------------- FLOW NUMERICAL METHOD DEFINITION -----------------------%
%
CONV_NUM_METHOD_FLOW= ROE
MUSCL_FLOW= YES
VENKAT_LIMITER_COEFF= 1.0
JST_SENSOR_COEFF= ( 0.5, 0.02 )
TIME_DISCRE_FLOW= EULER_IMPLICIT

% --------------------------- CONVERGENCE PARAMETERS --------------------------%
%
CONV_RESIDUAL_MINVAL= -10
CONV_STARTITER= 10
CONV_CAUCHY_ELEMS= 100
CONV_CAUCHY_EPS= 1E-5
