% Physics -------------------------------------------------------------- %
SOLVER= ELASTICITY

% Time settings --------------------------------------------------------- %
TIME_DISCRE_FEA= NEWMARK_IMPLICIT
NEWMARK_BETA=0.2601
NEWMARK_GAMMA=0.52

% Optimization --------------------------------------------------------- %
FEA_ADVANCED_MODE= YES
FEA_FILENAME= element_properties.dat
GRAD_OBJFUNC_FILENAME= of_grad.dat
REFERENCE_NODE= 234
REFERENCE_NODE_DISPLACEMENT= (0.0, 0.0)
REFERENCE_NODE_PENALTY= 1.0
DESIGN_VARIABLE_FEA= YOUNG_MODULUS

% Solid properties ----------------------------------------------------- %
MATERIAL_MODEL= NEO_HOOKEAN
ELASTICITY_MODULUS= 7E8
POISSON_RATIO= 0.35
MATERIAL_DENSITY= 2700.0

% Boundary conditions -------------------------------------------------- %
MARKER_CLAMPED= ( clamped )
MARKER_FLUID_LOAD= ( pressure_side_s, suction_side_s )

% Solid numerics ------------------------------------------------------- %
GEOMETRIC_CONDITIONS= LARGE_DEFORMATIONS
FORMULATION_ELASTICITY_2D= PLANE_STRESS

% Linear solvers ------------------------------------------------------- %
LINEAR_SOLVER= CONJUGATE_GRADIENT
LINEAR_SOLVER_PREC= ILU
LINEAR_SOLVER_ERROR= 1E-8
LINEAR_SOLVER_ITER= 1000
DISCADJ_LIN_SOLVER= CONJUGATE_GRADIENT
DISCADJ_LIN_PREC= ILU

% Convergence criteria ------------------------------------------------- %
BGS_RELAXATION= FIXED_PARAMETER
STAT_RELAX_PARAMETER= 1.0
INNER_ITER= 11
% Incremental load on to test that it does not break the discadj, it should only affect the direct solution.
INCREMENTAL_LOAD= NO

% In\Out --------------------------------------------------------------- %
MESH_FILENAME= mesh.su2
MESH_FORMAT= SU2

RESTART_SOL= NO
SOLUTION_FILENAME= solution_solid.dat
SOLUTION_ADJ_FILENAME= adjoint_solid.dat
OUTPUT_WRT_FREQ= 1
RESTART_FILENAME= solution_solid.dat
RESTART_ADJ_FILENAME= adjoint_solid.dat
TABULAR_FORMAT= CSV
VOLUME_FILENAME= solid
VOLUME_ADJ_FILENAME= adjoint_solid
SCREEN_WRT_FREQ_INNER= 10
CONV_FILENAME= history
HISTORY_OUTPUT= ITER, RMS_RES, STRUCT_COEFF, TAVG_STRUCT_COEFF
OUTPUT_FILES= NONE
