%%%%%%%%%%%%%%%%%%%%%%%%%%%%%%%%%%%%%%%%%%%%%%%%%%%%%%%%%%%%%%%%%%%%%%%%%%%%%%%%
%                                                                              %
% SU2 configuration file                                                       %
% Case description: Tip-loaded 3D cantilever beam, mix of element types,       %
%                   nonlinear elasticity with Knowles material model.          %
% Institution: Imperial College London                                         %
% File Version 8.0.0 "Harrier"                                                 %
%                                                                              %
%%%%%%%%%%%%%%%%%%%%%%%%%%%%%%%%%%%%%%%%%%%%%%%%%%%%%%%%%%%%%%%%%%%%%%%%%%%%%%%%
%
% Physics
SOLVER= ELASTICITY
MATH_PROBLEM= DIRECT
%
% Optimization
OBJECTIVE_FUNCTION= REFERENCE_NODE
REFERENCE_NODE= 8452
REFERENCE_NODE_DISPLACEMENT= (0.0, 0.0, 0.0)
REFERENCE_NODE_PENALTY= 1.0
DESIGN_VARIABLE_FEA= YOUNG_MODULUS
%
% Numerics
MATERIAL_MODEL= KNOWLES
GEOMETRIC_CONDITIONS= LARGE_DEFORMATIONS
MATERIAL_COMPRESSIBILITY= NEARLY_INCOMPRESSIBLE
%
% Material properties
ELASTICITY_MODULUS= 3E2
POISSON_RATIO= 0.3
KNOWLES_B = 1.0
KNOWLES_N = 1.0
%
% Boundary conditions
MARKER_CLAMPED= ( clamped )
MARKER_LOAD = ( load,1,0.1,1,0,0 )
%
% Linear solver (1 iter as this case aims to just evaluate the nonlin residual)
LINEAR_SOLVER= CONJUGATE_GRADIENT
LINEAR_SOLVER_PREC= JACOBI
LINEAR_SOLVER_ITER= 1
LINEAR_SOLVER_ERROR= 1e-10
%
% Convergence criteria
INNER_ITER= 1
%
% In/Out
MESH_FILENAME= mesh.su2
MESH_FORMAT= SU2
TABULAR_FORMAT= CSV
RESTART_SOL= YES
SOLUTION_FILENAME= solution_structure.dat

HISTORY_OUTPUT= (ITER, RMS_RES, STRUCT_COEFF)
SCREEN_OUTPUT=(INNER_ITER, RMS_UTOL, RMS_RTOL, RMS_ETOL, REFERENCE_NODE, VMS)
