%%%%%%%%%%%%%%%%%%%%%%%%%%%%%%%%%%%%%%%%%%%%%%%%%%%%%%%%%%%%%%%%%%%%%%%%%%%%%%%%
%                                                                              %
% SU2 configuration file                                                       %
% Case description: Centrifugal turbine rotor                                  %
% Author:S. Vitale                                                             %
% Institution: Delft University of Technology                                  %
% Date: Oct 26th, 2015                                                         %
% File Version 8.0.0 "Harrier"                                                 %
%                                                                              %
%%%%%%%%%%%%%%%%%%%%%%%%%%%%%%%%%%%%%%%%%%%%%%%%%%%%%%%%%%%%%%%%%%%%%%%%%%%%%%%%

% ------------- DIRECT, ADJOINT, AND LINEARIZED PROBLEM DEFINITION ------------%
%
SOLVER= NAVIER_STOKES
KIND_TURB_MODEL= SST
MATH_PROBLEM= DIRECT
RESTART_SOL= NO
%
% -------------------- COMPRESSIBLE FREE-STREAM DEFINITION --------------------%
%
MACH_NUMBER= 0.05
AOA= 0.0
FREESTREAM_PRESSURE= 200000.0
FREESTREAM_TEMPERATURE= 510.33
FREESTREAM_DENSITY= 1.2886
FREESTREAM_TURBULENCEINTENSITY = 0.1
FREESTREAM_TURB2LAMVISCRATIO = 100.0
FREESTREAM_OPTION= TEMPERATURE_FS
INIT_OPTION= TD_CONDITIONS
%
% ---------------------- REFERENCE VALUE DEFINITION ---------------------------%
%
REF_DIMENSIONALIZATION= FREESTREAM_PRESS_EQ_ONE
%
% --------------------------------- FLUID MODEL -----------------------------------%
%
FLUID_MODEL= PR_GAS
GAMMA_VALUE= 1.034
GAS_CONSTANT= 28.03
CRITICAL_TEMPERATURE= 586.5
CRITICAL_PRESSURE= 1332000.0
ACENTRIC_FACTOR= 0.592
%
% --------------------------- VISCOSITY MODEL ---------------------------------%
%
VISCOSITY_MODEL= CONSTANT_VISCOSITY
MU_CONSTANT= 1.0563E-5
MU_REF= 1.716E-5
MU_T_REF= 273.15
SUTHERLAND_CONSTANT= 110.4
%
% --------------------------- THERMAL CONDUCTIVITY MODEL ----------------------%
%
CONDUCTIVITY_MODEL= CONSTANT_CONDUCTIVITY
THERMAL_CONDUCTIVITY_CONSTANT= 0.025275
%
% -------------------- BOUNDARY CONDITION DEFINITION --------------------------%
%
MARKER_HEATFLUX= ( wall1, 0.0, wall2, 0.0 )
MARKER_RIEMANN= (inflow, TOTAL_CONDITIONS_PT, 366000.0, 515.00, 0.309016, 0.951056, 0.0)
MARKER_NRBC= (outflow, STATIC_PRESSURE, 165500.0, 0.0, 0.0, 0.0, 0.0)
MIXING_PROCESS_TYPE= MIXEDOUT_AVERAGE
MARKER_PERIODIC= ( periodic1, periodic2, 0.0, 0.0, 0.0, 0.0, 0.0, 9.47, 0.0, 0.0, 0.0)
%
% ------------------------ SURFACES IDENTIFICATION ----------------------------%
%
MARKER_PLOTTING= ( wall1, wall2 )
%
% Marker(s) between turbomachinery performance are evaluated. Use BLADE for single blade, STAGE for stage and TURBINE for a multi-stage.   
MARKER_TURBO_PERFORMANCE= (inflow, outflow, BLADE)
%
% ----------------------- DYNAMIC MESH DEFINITION -----------------------------%
%
GRID_MOVEMENT= YES
GRID_MOVEMENT_KIND= ROTATING_FRAME
MACH_MOTION= 0.35
ROTATION_RATE_X = 0.0
ROTATION_RATE_Y = 0.0
ROTATION_RATE_Z = 1990.00
%
% ------------- COMMON PARAMETERS DEFINING THE NUMERICAL METHOD ---------------%
%
NUM_METHOD_GRAD= WEIGHTED_LEAST_SQUARES
CFL_NUMBER= 10.0
CFL_ADAPT= YES
CFL_ADAPT_PARAM= ( 0.1, 1.2, 10.0, 1000.0)
%
% ------------------------ LINEAR SOLVER DEFINITION ---------------------------%
%
LINEAR_SOLVER= FGMRES
LINEAR_SOLVER_PREC= LU_SGS
LINEAR_SOLVER_ERROR= 1E-4
LINEAR_SOLVER_ITER= 5
%
% ----------------------- SLOPE LIMITER DEFINITION ----------------------------%
%
VENKAT_LIMITER_COEFF= 0.05
LIMITER_ITER= 999999
%
% -------------------- FLOW NUMERICAL METHOD DEFINITION -----------------------%
%
CONV_NUM_METHOD_FLOW= ROE
MUSCL_FLOW= YES
ENTROPY_FIX_COEFF= 0.001
JST_SENSOR_COEFF= ( 0.5, 0.02 )
SLOPE_LIMITER_FLOW= VENKATAKRISHNAN
TIME_DISCRE_FLOW= EULER_IMPLICIT
%
% -------------------- TURBULENT NUMERICAL METHOD DEFINITION ------------------%
%
CONV_NUM_METHOD_TURB= SCALAR_UPWIND
MUSCL_TURB= NO
SLOPE_LIMITER_TURB= VENKATAKRISHNAN
TIME_DISCRE_TURB= EULER_IMPLICIT
CFL_REDUCTION_TURB= 1.0
%
% --------------------------- CONVERGENCE PARAMETERS --------------------------%
%
ITER= 12000
CONV_RESIDUAL_MINVAL= -16
CONV_STARTITER= 10
CONV_CAUCHY_ELEMS= 100
CONV_CAUCHY_EPS= 1E-6
%
% ------------------------- INPUT/OUTPUT INFORMATION --------------------------%
%
MESH_FILENAME= su2mesh_periodic.su2
MESH_FORMAT= SU2
MESH_OUT_FILENAME= su2mesh_per.su2
SOLUTION_FILENAME= restart_flow.dat
TABULAR_FORMAT= CSV
CONV_FILENAME= history
RESTART_FILENAME= restart_flow.dat
VOLUME_FILENAME= flow
SURFACE_FILENAME= surface_flow
OUTPUT_WRT_FREQ= 500