% PROBLEM DEFINITION
%
SOLVER= EULER
REF_DIMENSIONALIZATION= FREESTREAM_VEL_EQ_MACH
MATH_PROBLEM= DIRECT
RESTART_SOL= NO

% FREE-STREAM DEFINITION
%
% We are translating the domain instead of having farfield velocity.
GRID_MOVEMENT= STEADY_TRANSLATION
MOTION_ORIGIN= ( 0.0, 0.0, 0.0 )
TRANSLATION_RATE= ( -264.994, -5.78219, 0.0 )
MACH_NUMBER= 0.0
FREESTREAM_PRESSURE= 101325.0
FREESTREAM_TEMPERATURE= 273.15

% REFERENCE VALUES
%
% The AOA is only needed to compute CD and CL, it should match the translation rate.
AOA= 1.25
% Same for the Mach number of the motion.
MACH_MOTION= 0.8
REF_ORIGIN_MOMENT_X= 0.25
REF_ORIGIN_MOMENT_Y= 0.00
REF_ORIGIN_MOMENT_Z= 0.00
REF_LENGTH= 1.0
REF_AREA= 1.0

% BOUNDARY CONDITIONS
%
MARKER_EULER= ( airfoil )
MARKER_FAR= ( farfield )
MARKER_PLOTTING= ( airfoil )
MARKER_MONITORING= ( airfoil )
% We are specifying this marker to have an easy way to access it in python.
MARKER_DEFORM_MESH= ( airfoil )

% DISCRETIZATION METHODS
%
CONV_NUM_METHOD_FLOW= ROE
MUSCL_FLOW= YES
NUM_METHOD_GRAD= WEIGHTED_LEAST_SQUARES
SLOPE_LIMITER_FLOW= VENKATAKRISHNAN_WANG
VENKAT_LIMITER_COEFF= 0.1

% SOLUTION ACCELERATION
%
USE_VECTORIZATION= YES
CFL_NUMBER= 1e3
CFL_ADAPT= NO
%
MGLEVEL= 3
MGCYCLE= W_CYCLE
%
LINEAR_SOLVER= FGMRES
LINEAR_SOLVER_PREC= ILU
LINEAR_SOLVER_ERROR= 0.1
LINEAR_SOLVER_ITER= 10

% CONVERGENCE PARAMETERS
%
ITER= 250
CONV_FIELD= RMS_DENSITY
CONV_RESIDUAL_MINVAL= -9

% INPUT/OUTPUT
%
MESH_FILENAME= ../../euler/naca0012/mesh_NACA0012_inv.su2
MESH_FORMAT= SU2
SCREEN_OUTPUT= (INNER_ITER, RMS_RES, LIFT, DRAG)
HISTORY_OUTPUT= (INNER_ITER, RMS_RES, AERO_COEFF)

