%%%%%%%%%%%%%%%%%%%%%%%%%%%%%%%%%%%%%%%%%%%%%%%%%%%%%%%%%%%%%%%%%%%%%%%%%%%%%%%%
%                                                                              %
% SU2 configuration file                                                       %
% Case description: Turbulent flow over flat plate, wall functions             %
% Author: Nijso Beishuizen                                                     %
% Institution: Bosch Thermotechnology                                          %
% Date: 2021.09.01                                                             %
% File Version 7.2.0 "Blackbird"                                               %
%                                                                              %
%%%%%%%%%%%%%%%%%%%%%%%%%%%%%%%%%%%%%%%%%%%%%%%%%%%%%%%%%%%%%%%%%%%%%%%%%%%%%%%%

% ------------- DIRECT, ADJOINT, AND LINEARIZED PROBLEM DEFINITION ------------%
SOLVER= INC_RANS
KIND_TURB_MODEL= SST
MATH_PROBLEM= DIRECT
RESTART_SOL= NO 
% --------------------------- VISCOSITY MODEL ---------------------------------%
VISCOSITY_MODEL= CONSTANT_VISCOSITY
MU_CONSTANT= 1.8573E-5
% ---------------- INCOMPRESSIBLE FLOW CONDITION DEFINITION -------------------%
INC_DENSITY_MODEL= CONSTANT
INC_DENSITY_INIT= 1.3254
INC_TEMPERATURE_INIT= 300.00
INC_VELOCITY_INIT= (70, 0.0, 0.0 )
INC_INLET_TYPE= VELOCITY_INLET
INC_OUTLET_TYPE= PRESSURE_OUTLET PRESSURE_OUTLET
% ----------- COMPRESSIBLE AND INCOMPRESSIBLE FREE-STREAM DEFINITION ----------%
MACH_NUMBER= 0.2
FREESTREAM_TEMPERATURE= 300.0
REYNOLDS_NUMBER= 5000000.0
REYNOLDS_LENGTH= 1.0
% ---------------------- REFERENCE VALUE DEFINITION ---------------------------%
REF_LENGTH= 1.0
REF_AREA= 2.0
% -------------------- BOUNDARY CONDITION DEFINITION --------------------------%
MARKER_HEATFLUX= ( wall, 0.0 )
MARKER_INLET= ( inlet, 302.4, 70.0, 1.0, 0.0, 0.0 )
MARKER_OUTLET= ( outlet, 0.0, farfield, 0.0 )
MARKER_SYM= ( symmetry )
MARKER_PLOTTING= ( wall )
MARKER_MONITORING= ( wall )
% ------------------------ WALL FUNCTION DEFINITION --------------------------%
MARKER_WALL_FUNCTIONS= ( wall, STANDARD_WALL_FUNCTION )
WALLMODEL_KAPPA= 0.41
WALLMODEL_B= 5.5
WALLMODEL_MINYPLUS= 5.0
WALLMODEL_MAXITER= 200
WALLMODEL_RELFAC= 0.5
% ------------- COMMON PARAMETERS DEFINING THE NUMERICAL METHOD ---------------%
NUM_METHOD_GRAD= GREEN_GAUSS
CFL_NUMBER= 1000.0
CFL_ADAPT= NO
ITER= 1000
% -------------------------- MULTIGRID PARAMETERS -----------------------------%
MGLEVEL= 0
% -------------------- FLOW NUMERICAL METHOD DEFINITION -----------------------%
CONV_NUM_METHOD_FLOW= FDS
MUSCL_FLOW= YES
SLOPE_LIMITER_FLOW= NONE
TIME_DISCRE_FLOW= EULER_IMPLICIT
% -------------------- TURBULENT NUMERICAL METHOD DEFINITION ------------------%
CONV_NUM_METHOD_TURB= SCALAR_UPWIND
MUSCL_TURB= NO
SLOPE_LIMITER_TURB= NONE
TIME_DISCRE_TURB= EULER_IMPLICIT
% --------------------------- CONVERGENCE PARAMETERS --------------------------%
CONV_RESIDUAL_MINVAL= -15
CONV_STARTITER= 10
CONV_CAUCHY_ELEMS= 100
CONV_CAUCHY_EPS= 1E-6
% ------------------------- INPUT/OUTPUT INFORMATION --------------------------%
MESH_FILENAME= ../mesh_flatplate_140x100.su2
MESH_FORMAT= SU2
SOLUTION_FILENAME= solution_flow.dat
TABULAR_FORMAT= CSV
CONV_FILENAME= history
RESTART_FILENAME= restart_flow.dat
VOLUME_FILENAME= flow
SURFACE_FILENAME= surface_flow
OUTPUT_WRT_FREQ= 1000
HISTORY_OUTPUT= (ITER, RMS_RES, AERO_COEFF, FLOW_COEFF)
SCREEN_OUTPUT= (INNER_ITER, WALL_TIME, RMS_TKE, RMS_DISSIPATION, LIFT, DRAG)
