%%%%%%%%%%%%%%%%%%%%%%%%%%%%%%%%%%%%%%%%%%%%%%%%%%%%%%%%%%%%%%%%%%%%%%%%%%%%%%%%%
%                                                                               %
% SU2 configuration file                                                        %
% Case description: 2D cylinder array with CHT couplings                        %
% Author: O. Burghardt, T. Economon                                             %
% Institution: Chair for Scientific Computing, TU Kaiserslautern                %
% Date: August 8, 2019                                                          %
% File Version 8.0.0 "Harrier"                                                  %
%                                                                               %
%%%%%%%%%%%%%%%%%%%%%%%%%%%%%%%%%%%%%%%%%%%%%%%%%%%%%%%%%%%%%%%%%%%%%%%%%%%%%%%%%

% ------------- DIRECT, ADJOINT, AND LINEARIZED PROBLEM DEFINITION ------------%
%
SOLVER= MULTIPHYSICS
MATH_PROBLEM= DIRECT
CONFIG_LIST = (flow_cylinder.cfg, solid_cylinder1.cfg, solid_cylinder2.cfg, solid_cylinder3.cfg)
MARKER_ZONE_INTERFACE= (cylinder_outer1, cylinder_inner1, cylinder_outer2, cylinder_inner2, cylinder_outer3, cylinder_inner3)
MARKER_CHT_INTERFACE= (cylinder_outer1, cylinder_inner1, cylinder_outer2, cylinder_inner2, cylinder_outer3, cylinder_inner3)
CHT_COUPLING_METHOD= DIRECT_TEMPERATURE_ROBIN_HEATFLUX
TIME_DOMAIN = NO
OUTER_ITER = 11
MESH_FILENAME= mesh_cht_3cyl.su2
MESH_FORMAT= SU2

% ----------------------- DESIGN VARIABLE PARAMETERS --------------------------%
%
% These are just default parameters so that we can run SU2_DOT_AD, they have no physical meaning for this test case.
DV_KIND= HICKS_HENNE
DV_MARKER= ( cylinder_outer1, cylinder_inner1, cylinder_outer2, cylinder_inner2, cylinder_outer3, cylinder_inner3  )
DV_PARAM= (0.0, 0.5)
DV_VALUE= 0.1
