%%%%%%%%%%%%%%%%%%%%%%%%%%%%%%%%%%%%%%%%%%%%%%%%%%%%%%%%%%%%%%%%%%%%%%%%%%%%%%%%
%                                                                              %
% SU2 configuration file                                                       %
% Case description: 2D Axial stage                                             %
% Author: S. Vitale                                                            %
% Institution: Delft University of Technology                                  %
% Date: Feb 28th, 2017                                                         %
% File Version 8.0.0 "Harrier"                                                 %
%                                                                              %
%%%%%%%%%%%%%%%%%%%%%%%%%%%%%%%%%%%%%%%%%%%%%%%%%%%%%%%%%%%%%%%%%%%%%%%%%%%%%%%%
%
MULTIZONE= YES
CONFIG_LIST= (zone_1.cfg, zone_2.cfg)
%
% ------------- DIRECT, ADJOINT, AND LINEARIZED PROBLEM DEFINITION ------------%
%
SOLVER= RANS
KIND_TURB_MODEL= SST
MATH_PROBLEM= DIRECT
RESTART_SOL= NO
%
% -------------------- COMPRESSIBLE FREE-STREAM DEFINITION --------------------%
%
MACH_NUMBER= 0.05
AOA= 0.0
FREESTREAM_PRESSURE= 140000.0
FREESTREAM_TEMPERATURE=  300.0
FREESTREAM_DENSITY= 1.7418
FREESTREAM_OPTION= TEMPERATURE_FS
FREESTREAM_TURBULENCEINTENSITY = 0.03
FREESTREAM_TURB2LAMVISCRATIO = 100.0
INIT_OPTION= TD_CONDITIONS
%
% ---------------------- REFERENCE VALUE DEFINITION ---------------------------%
%
REF_ORIGIN_MOMENT_X = 0.00
REF_ORIGIN_MOMENT_Y = 0.00
REF_ORIGIN_MOMENT_Z = 0.00
REF_LENGTH= 1.0
REF_AREA= 1.0
REF_DIMENSIONALIZATION= DIMENSIONAL
%
% ------------------------------ EQUATION OF STATE ----------------------------%
%
FLUID_MODEL= IDEAL_GAS
GAMMA_VALUE= 1.4
GAS_CONSTANT= 287.058
%
% --------------------------- VISCOSITY MODEL ---------------------------------%
%
VISCOSITY_MODEL= SUTHERLAND
MU_REF= 1.716E-5
MU_T_REF= 273.15
SUTHERLAND_CONSTANT= 110.4
%
% --------------------------- THERMAL CONDUCTIVITY MODEL ----------------------%
%
CONDUCTIVITY_MODEL= CONSTANT_PRANDTL
%
% -------------------- BOUNDARY CONDITION DEFINITION --------------------------%
%
MARKER_HEATFLUX= ( wall1, 0.0, wall2, 0.0)
%
MARKER_PERIODIC= ( periodic1, periodic2, 0.0, 0.0, 0.0, 0.0, 0.0, 0.0, 0.0, 0.04463756775, 0.0, periodic3, periodic4, 0.0, 0.0, 0.0, 0.0, 0.0, 0.0, 0.0, 0.04463756775, 0.0)
%
%-------- INFLOW/OUTFLOW BOUNDARY CONDITION SPECIFIC FOR TURBOMACHINERY --------%
%
% Inflow and Outflow markers must be specified, for each blade (zone), following the natural groth of the machine (i.e, from the first blade to the last)
MARKER_TURBOMACHINERY= (inflow, outmix, inmix, outflow)
MARKER_ANALYZE= (outflow)
%
% Mixing-plane interface markers must be specified to activate the transfer of information between zones
MARKER_MIXINGPLANE_INTERFACE= (outmix, inmix)
%
MARKER_GILES= (inflow, TOTAL_CONDITIONS_PT, 169623.33, 305.76, 1.0, 0.0, 0.0,1.0,1.0, outmix, MIXING_OUT, 0.0, 0.0, 0.0, 0.0, 0.0,1.0,1.0, inmix, MIXING_IN, 0.0, 0.0, 0.0, 0.0, 0.0,1.0, 1.0 outflow, STATIC_PRESSURE, 99741.00, 0.0, 0.0, 0.0, 0.0,1.0,1.0)
SPATIAL_FOURIER= NO
%
%---------------------------- TURBOMACHINERY SIMULATION -----------------------------%
%
TURBOMACHINERY_KIND= AXIAL AXIAL
TURBULENT_MIXINGPLANE= YES
RAMP_OUTLET_PRESSURE= NO
RAMP_OUTLET_PRESSURE_COEFF= (140000.0, 10.0, 2000)
AVERAGE_PROCESS_KIND= MIXEDOUT
PERFORMANCE_AVERAGE_PROCESS_KIND= MIXEDOUT
MIXEDOUT_COEFF= (1.0, 1.0E-05, 15)
AVERAGE_MACH_LIMIT= 0.05
%
% ------------------------ SURFACES IDENTIFICATION ----------------------------%
%
MARKER_PLOTTING= (wall1, wall2)
%
% ------------- COMMON PARAMETERS DEFINING THE NUMERICAL METHOD ---------------%
%
NUM_METHOD_GRAD= WEIGHTED_LEAST_SQUARES
CFL_NUMBER= 10.0
CFL_ADAPT= NO
CFL_ADAPT_PARAM= ( 1.3, 1.2, 1.0, 10.0)
%
% ------------------------ LINEAR SOLVER DEFINITION ---------------------------%
%
LINEAR_SOLVER= FGMRES
LINEAR_SOLVER_PREC= LU_SGS
LINEAR_SOLVER_ERROR= 1E-4
LINEAR_SOLVER_ITER= 10
%
% ---------- NOT WORKING WITH PERIODIC BOUNDARY CONDITIONS !!!!! --------------%
%
%
% ----------------------- SLOPE LIMITER DEFINITION ----------------------------%
%
VENKAT_LIMITER_COEFF= 0.05
LIMITER_ITER= 999999
%
% -------------------- FLOW NUMERICAL METHOD DEFINITION -----------------------%
%
CONV_NUM_METHOD_FLOW= ROE
MUSCL_FLOW= YES
SLOPE_LIMITER_FLOW= VAN_ALBADA_EDGE
ENTROPY_FIX_COEFF= 0.01
JST_SENSOR_COEFF= ( 0.5, 0.02 )
TIME_DISCRE_FLOW= EULER_IMPLICIT
%
% -------------------- TURBULENT NUMERICAL METHOD DEFINITION ------------------%
%
CONV_NUM_METHOD_TURB= SCALAR_UPWIND
MUSCL_TURB= NO
SLOPE_LIMITER_TURB= VENKATAKRISHNAN
TIME_DISCRE_TURB= EULER_IMPLICIT
CFL_REDUCTION_TURB= 1.0
%
% --------------------------- CONVERGENCE PARAMETERS --------------------------%
%
OUTER_ITER= 21
CONV_RESIDUAL_MINVAL= -16
CONV_STARTITER= 10
CONV_CAUCHY_ELEMS= 100
CONV_CAUCHY_EPS= 1E-6
%
% ------------------------- INPUT/OUTPUT INFORMATION --------------------------%
%
SCREEN_OUTPUT= OUTER_ITER, AVG_BGS_RES[0], AVG_BGS_RES[1], RMS_DENSITY[0], RMS_ENERGY[0], RMS_DENSITY[1], RMS_ENERGY[1], SURFACE_TOTAL_PRESSURE[1]
MESH_FILENAME= mesh_axial_stage_2d_turb.su2
MESH_FORMAT= SU2
MESH_OUT_FILENAME= meshout.su2
SOLUTION_FILENAME= restart_flow.dat
SOLUTION_ADJ_FILENAME= solution_adj.dat
TABULAR_FORMAT= CSV
CONV_FILENAME= history
RESTART_FILENAME= restart_flow.dat
RESTART_ADJ_FILENAME= restart_adj.dat
VOLUME_FILENAME= flow
VOLUME_ADJ_FILENAME= adjoint
GRAD_OBJFUNC_FILENAME= of_grad.dat
SURFACE_FILENAME= surface_flow
SURFACE_ADJ_FILENAME= surface_adjoint
OUTPUT_WRT_FREQ= 1000
