%%%%%%%%%%%%%%%%%%%%%%%%%%%%%%%%%%%%%%%%%%%%%%%%%%%%%%%%%%%%%%%%%%%%%%%%%%%%%%%%
%                                                                              %
% SU2 configuration file                                                       %
% Case description: Transonic inviscid flow around a NACA0012 airfoil          %
% Author: Thomas D. Economon                                                   %
% Institution: Stanford University                                             %
% Date: 2014.06.11                                                             %
% File Version 8.4.0 "Harrier"                                                 %
%                                                                              %
%%%%%%%%%%%%%%%%%%%%%%%%%%%%%%%%%%%%%%%%%%%%%%%%%%%%%%%%%%%%%%%%%%%%%%%%%%%%%%%%

% ------------- DIRECT, ADJOINT, AND LINEARIZED PROBLEM DEFINITION ------------%
%
SOLVER= EULER
MATH_PROBLEM= DIRECT
RESTART_SOL= NO

% ----------- COMPRESSIBLE AND INCOMPRESSIBLE FREE-STREAM DEFINITION ----------%
%
MACH_NUMBER= 0.8
AOA= 1.25
FREESTREAM_PRESSURE= 101325.0
FREESTREAM_TEMPERATURE= 273.15

% -------------- COMPRESSIBLE AND INCOMPRESSIBLE FLUID CONSTANTS --------------%
%
GAMMA_VALUE= 1.4
GAS_CONSTANT= 287.87

% ---------------------- REFERENCE VALUE DEFINITION ---------------------------%
%
REF_ORIGIN_MOMENT_X = 0.25
REF_ORIGIN_MOMENT_Y = 0.00
REF_ORIGIN_MOMENT_Z = 0.00
REF_LENGTH= 1.0
REF_AREA= 1.0
REF_DIMENSIONALIZATION= DIMENSIONAL

% ----------------------- BOUNDARY CONDITION DEFINITION -----------------------%
%
MARKER_EULER= ( airfoil )
MARKER_FAR= ( farfield )

% ------------------------ SURFACES IDENTIFICATION ----------------------------%
%
MARKER_PLOTTING = ( airfoil )
MARKER_MONITORING = ( airfoil )
MARKER_DESIGNING = ( airfoil )

% ------------- COMMON PARAMETERS TO DEFINE THE NUMERICAL METHOD --------------%
%
NUM_METHOD_GRAD= WEIGHTED_LEAST_SQUARES
OBJECTIVE_FUNCTION= DRAG
CFL_NUMBER= 4.0
ITER= 250

% ------------------------ LINEAR SOLVER DEFINITION ---------------------------%
%
LINEAR_SOLVER= FGMRES
LINEAR_SOLVER_PREC= LU_SGS
LINEAR_SOLVER_ERROR= 1E-6
LINEAR_SOLVER_ITER= 5

% -------------------------- MULTIGRID PARAMETERS -----------------------------%
%
MGLEVEL= 3
MGCYCLE= W_CYCLE
MG_PRE_SMOOTH= ( 1, 2, 3, 3 )
MG_POST_SMOOTH= ( 0, 0, 0, 0 )
MG_CORRECTION_SMOOTH= ( 0, 0, 0, 0 )
MG_DAMP_RESTRICTION= 1.0
MG_DAMP_PROLONGATION= 1.0

% -------------------- FLOW NUMERICAL METHOD DEFINITION -----------------------%
%
CONV_NUM_METHOD_FLOW= JST
JST_SENSOR_COEFF= ( 0.5, 0.02 )
TIME_DISCRE_FLOW= EULER_IMPLICIT

% ---------------- ADJOINT-FLOW NUMERICAL METHOD DEFINITION -------------------%
%
CONV_NUM_METHOD_ADJFLOW= JST
ADJ_JST_SENSOR_COEFF= ( 0.5, 0.02 )
CFL_REDUCTION_ADJFLOW= 0.5
TIME_DISCRE_ADJFLOW= EULER_IMPLICIT

% ----------------------- DESIGN VARIABLE PARAMETERS --------------------------%
%
DV_KIND= HICKS_HENNE_CAMBER, HICKS_HENNE_CAMBER, HICKS_HENNE_CAMBER, HICKS_HENNE_CAMBER, HICKS_HENNE_CAMBER, HICKS_HENNE_CAMBER, HICKS_HENNE_CAMBER, HICKS_HENNE_CAMBER, HICKS_HENNE_CAMBER, HICKS_HENNE_CAMBER, HICKS_HENNE_CAMBER, HICKS_HENNE_CAMBER, HICKS_HENNE_CAMBER, HICKS_HENNE_CAMBER
DV_MARKER= ( airfoil )
DV_PARAM= ( 0.06666666666666667 ); ( 0.13333333333333333 ); ( 0.2 ); ( 0.26666666666666666 ); ( 0.3333333333333333 ); ( 0.4 ); ( 0.4666666666666667 ); ( 0.5333333333333333 ); ( 0.6 ); ( 0.6666666666666666 ); ( 0.7333333333333333 ); ( 0.8 ); ( 0.8666666666666667 ); ( 0.9333333333333333 )
DV_VALUE= 0.0, 0.0, 0.0, 0.0, 0.0, 0.0, 0.0, 0.0, 0.0, 0.0, 0.0, 0.0, 0.0, 0.005

% ------------------------ GRID DEFORMATION PARAMETERS ------------------------%
%
DEFORM_LINEAR_SOLVER= FGMRES
DEFORM_LINEAR_SOLVER_PREC= LU_SGS
DEFORM_LINEAR_SOLVER_ITER= 1000
DEFORM_NONLINEAR_ITER= 1
DEFORM_CONSOLE_OUTPUT= YES
DEFORM_LINEAR_SOLVER_ERROR= 1E-14
DEFORM_COEFF = 1E6
DEFORM_STIFFNESS_TYPE= INVERSE_VOLUME

% --------------------------- CONVERGENCE PARAMETERS --------------------------%
%
CONV_RESIDUAL_MINVAL= -8
CONV_STARTITER= 10
CONV_CAUCHY_ELEMS= 100
CONV_CAUCHY_EPS= 1E-6

% ------------------------- INPUT/OUTPUT INFORMATION --------------------------%
%
MESH_FILENAME= mesh_NACA0012_inv.su2
MESH_FORMAT= SU2
MESH_OUT_FILENAME= mesh_out.su2
SOLUTION_FILENAME= solution_flow.dat
SOLUTION_ADJ_FILENAME= solution_adj.dat
TABULAR_FORMAT= CSV
CONV_FILENAME= history
RESTART_FILENAME= restart_flow.dat
RESTART_ADJ_FILENAME= restart_adj.dat
VOLUME_FILENAME= flow
VOLUME_ADJ_FILENAME= adjoint
GRAD_OBJFUNC_FILENAME= of_grad.dat
SURFACE_FILENAME= surface_flow
SURFACE_ADJ_FILENAME= surface_adjoint
OUTPUT_WRT_FREQ= 250

% --------------------- OPTIMAL SHAPE DESIGN DEFINITION -----------------------%
%
OPT_OBJECTIVE= DRAG * 0.001
OPT_CONSTRAINT= ( LIFT > 0.328188 ) * 0.001; ( MOMENT_Z > 0.034068 ) * 0.001; ( AIRFOIL_THICKNESS > 0.11 ) * 0.001
DEFINITION_DV= ( 37, 1.0 | airfoil | 0.06666666666666667 ); ( 37, 1.0 | airfoil | 0.13333333333333333 ); ( 37, 1.0 | airfoil | 0.2 ); ( 37, 1.0 | airfoil | 0.26666666666666666 ); ( 37, 1.0 | airfoil | 0.3333333333333333 ); ( 37, 1.0 | airfoil | 0.4 ); ( 37, 1.0 | airfoil | 0.4666666666666667 ); ( 37, 1.0 | airfoil | 0.5333333333333333 ); ( 37, 1.0 | airfoil | 0.6 ); ( 37, 1.0 | airfoil | 0.6666666666666666 ); ( 37, 1.0 | airfoil | 0.7333333333333333 ); ( 37, 1.0 | airfoil | 0.8 ); ( 37, 1.0 | airfoil | 0.8666666666666667 ); ( 37, 1.0 | airfoil | 0.9333333333333333 )