%%%%%%%%%%%%%%%%%%%%%%%%%%%%%%%%%%%%%%%%%%%%%%%%%%%%%%%%%%%%%%%%%%%%%%%%%%%%%%%%
%                                                                              %
% SU2 configuration file                                                       %
% Case description: Continuous adjoint of a combination of multiple objectives %
%   defined on different surfaces.                                             %
% Author: H.L. Kline, modified from inviscid wedge by Thomas D. Economon       %
% Institution: Stanford University                                             %
% Date: 2018.01.07                                                             %
% File Version 8.0.0 "Harrier"                                                 %
%                                                                              %
%%%%%%%%%%%%%%%%%%%%%%%%%%%%%%%%%%%%%%%%%%%%%%%%%%%%%%%%%%%%%%%%%%%%%%%%%%%%%%%%

% ------------- DIRECT, ADJOINT, AND LINEARIZED PROBLEM DEFINITION ------------%
%
SOLVER= EULER
MATH_PROBLEM= CONTINUOUS_ADJOINT
RESTART_SOL= YES
NZONES= 1
OUTPUT_FILES=(RESTART_ASCII)

% ----------- COMPRESSIBLE AND INCOMPRESSIBLE FREE-STREAM DEFINITION ----------%
%
MACH_NUMBER= 2.0
AOA= 0.0
SIDESLIP_ANGLE= 0.0
FREESTREAM_PRESSURE= 100000.0
FREESTREAM_TEMPERATURE= 300.0

% ---------------------- REFERENCE VALUE DEFINITION ---------------------------%
%
REF_ORIGIN_MOMENT_X = 0.25
REF_ORIGIN_MOMENT_Y = 0.00
REF_ORIGIN_MOMENT_Z = 0.00
REF_LENGTH= 1.0
REF_AREA= 1.0

% -------------------- BOUNDARY CONDITION DEFINITION --------------------------%
%
MARKER_EULER= ( upper, lower )
MARKER_SUPERSONIC_INLET= ( inlet, 300.0, 100000.0, 695.4290761824674, 0.0, 0.0 )
MARKER_OUTLET= ( outlet, 10000.0 )
MARKER_PLOTTING= ( lower )
MARKER_MONITORING= (outlet, lower)

% ------------- COMMON PARAMETERS DEFINING THE NUMERICAL METHOD ---------------%
%
NUM_METHOD_GRAD= WEIGHTED_LEAST_SQUARES
CFL_NUMBER= 1.0
CFL_ADAPT= NO
CFL_ADAPT_PARAM= ( 1.5, 0.5, 1.0, 100.0 )
RK_ALPHA_COEFF= ( 0.66667, 0.66667, 1.000000 )
ITER=1000
LINEAR_SOLVER= BCGSTAB
LINEAR_SOLVER_ERROR= 1E-6
LINEAR_SOLVER_ITER= 5
LINEAR_SOLVER_PREC= ILU
LINEAR_SOLVER_ILU_FILL_IN= 0

% -------------------------- MULTIGRID PARAMETERS -----------------------------%
%
MGLEVEL= 2
MGCYCLE= V_CYCLE
MG_PRE_SMOOTH= ( 1, 2, 3, 3 )
MG_POST_SMOOTH= ( 0, 0, 0, 0 )
MG_CORRECTION_SMOOTH= ( 0, 0, 0, 0 )
MG_DAMP_RESTRICTION= 0.8
MG_DAMP_PROLONGATION= 0.8

% -------------------- FLOW NUMERICAL METHOD DEFINITION -----------------------%
%
CONV_NUM_METHOD_FLOW= ROE
MUSCL_FLOW= YES
SLOPE_LIMITER_FLOW= NONE
VENKAT_LIMITER_COEFF= 0.006
JST_SENSOR_COEFF= ( 0.5, 0.02 )
TIME_DISCRE_FLOW= EULER_IMPLICIT

% ---------------- ADJOINT-FLOW NUMERICAL METHOD DEFINITION -------------------%
%
CONV_NUM_METHOD_ADJFLOW= ROE
MUSCL_ADJFLOW= YES
SLOPE_LIMITER_ADJFLOW= NONE
ADJ_JST_SENSOR_COEFF= ( 0.5, 0.02 )
TIME_DISCRE_ADJFLOW= EULER_IMPLICIT
RELAXATION_FACTOR_ADJOINT= 1.0
CFL_REDUCTION_ADJFLOW= 0.8
LIMIT_ADJFLOW= 1E15
MG_ADJFLOW= NO
OBJECTIVE_FUNCTION = SURFACE_TOTAL_PRESSURE, DRAG
OBJECTIVE_WEIGHT= -1.0E-7,1.0
MARKER_ANALYZE  = (outlet)
MARKER_ANALYZE_AVERAGE = AREA

% --------------------------- CONVERGENCE PARAMETERS --------------------------%
%
CONV_RESIDUAL_MINVAL= -11
CONV_STARTITER= 10

% ------------------------- INPUT/OUTPUT INFORMATION --------------------------%
%
MESH_FILENAME= mesh_wedge_inv_FFD.su2
MESH_FORMAT= SU2
MESH_OUT_FILENAME= mesh_out.su2
SOLUTION_FILENAME= solution_flow.dat
SOLUTION_ADJ_FILENAME= solution_adj.dat
TABULAR_FORMAT= TECPLOT
CONV_FILENAME= history
RESTART_FILENAME= restart_flow.dat
RESTART_ADJ_FILENAME= restart_adj.dat
VOLUME_FILENAME= flow
VOLUME_ADJ_FILENAME= adjoint
GRAD_OBJFUNC_FILENAME= of_grad.dat
SURFACE_FILENAME= surface_flow
SURFACE_ADJ_FILENAME= surface_adjoint
OUTPUT_WRT_FREQ= 250
READ_BINARY_RESTART = NO

% -------------------- FREE-FORM DEFORMATION PARAMETERS -----------------------%
%
FFD_TOLERANCE= 1E-10
FFD_ITERATIONS= 500
FFD_DEFINITION= (MAIN_BOX, 0.5, -0.25, 0, 1.5, -0.25, 0, 1.5, 0.25,  0, 0.5, 0.25,  0.0, 0.0, 0.0, 0.0, 0.0, 0.0, 0.0, 0.0, 0.0, 0.0, 0.0, 0.0, 0.0, 0.0)
FFD_DEGREE= (10, 1,0)
FFD_CONTINUITY= 2ND_DERIVATIVE

% ------------------------ GRID DEFORMATION PARAMETERS ------------------------%
%
DV_MARKER= ( lower )
DV_KIND= FFD_CONTROL_POINT_2D
DV_PARAM= (MAIN_BOX, 3,0, 0,1.0,0,0 )
DV_VALUE= 0.5
DEFORM_LINEAR_SOLVER_ITER= 500
DEFORM_NONLINEAR_ITER= 1
DEFORM_CONSOLE_OUTPUT= YES
DEFORM_LINEAR_SOLVER_ERROR= 1E-14
DEFORM_STIFFNESS_TYPE= INVERSE_VOLUME
HISTORY_OUTPUT= (ITER, RMS_RES, AERO_COEFF)

% --------------------- OPTIMAL SHAPE DESIGN DEFINITION -----------------------%
%
OPT_OBJECTIVE=SURFACE_TOTAL_PRESSURE*-1E-4; (DRAG = 0.05)*1E6
OPT_COMBINE_OBJECTIVE = YES
OPT_CONSTRAINT= NONE
OPT_ITERATIONS= 1
OPT_ACCURACY= 1E-6
OPT_BOUND_UPPER= 0.1
OPT_BOUND_LOWER= -0.1
DEFINITION_DV= (19, 1.0| lower | MAIN_BOX, 3,0,0,1.0);(19, 1.0| lower | MAIN_BOX, 4,0,0,1.0);(19, 1.0| lower | MAIN_BOX, 5,0,0,1.0);(19, 1.0| lower | MAIN_BOX, 6,0,0,1.0)