%%%%%%%%%%%%%%%%%%%%%%%%%%%%%%%%%%%%%%%%%%%%%%%%%%%%%%%%%%%%%%%%%%%%%%%%%%%%%%%%
% SU2 configuration file                                                       %
% Case description: Regression test for coupled adjoints                       %
% Author: R.Sanchez                                                            %
% Institution: Imperial College London                                         %
% Date: 2017.11.29                                                             %
% File Version 6.2.0 "Falcon"                                                  %
%%%%%%%%%%%%%%%%%%%%%%%%%%%%%%%%%%%%%%%%%%%%%%%%%%%%%%%%%%%%%%%%%%%%%%%%%%%%%%%%

SOLVER= ELASTICITY

MATH_PROBLEM= DISCRETE_ADJOINT

RESTART_SOL= NO

PRESTRETCH = YES
PRESTRETCH_FILENAME = prestretch.dat

DE_EFFECTS = YES
ELECTRIC_FIELD_CONST = 4.25E-11
ELECTRIC_FIELD_DIR = (0.0,1.0)
ELECTRIC_FIELD_MOD = 20E5

REFERENCE_GEOMETRY = YES
REFERENCE_GEOMETRY_FILENAME = reference_geometry.dat
REFERENCE_GEOMETRY_FORMAT = SU2

WRT_BINARY_RESTART=NO
READ_BINARY_RESTART=NO

STAT_RELAX_PARAMETER= 1.0
BGS_RELAXATION = FIXED_PARAMETER
PREDICTOR_ORDER=0

GEOMETRIC_CONDITIONS= LARGE_DEFORMATIONS
MATERIAL_MODEL= NEO_HOOKEAN
MATERIAL_COMPRESSIBILITY= COMPRESSIBLE

ELASTICITY_MODULUS=34150
POISSON_RATIO=0.0
MATERIAL_DENSITY=402.287
FORMULATION_ELASTICITY_2D = PLANE_STRESS

NONLINEAR_FEM_SOLUTION_METHOD = NEWTON_RAPHSON
INNER_ITER= 5

MARKER_CLAMPED = ( Clamped_Right, Clamped_Left )
MARKER_PRESSURE= ( LowerWallS, 0, UpperWallS, 0)
MARKER_FLUID_LOAD= ( LowerWallS, UpperWallS)

WRT_CON_FREQ= 1
WRT_CON_FREQ_DUALTIME= 1
WRT_SOL_FREQ= 1
WRT_SOL_FREQ_DUALTIME= 5

LINEAR_SOLVER= CONJUGATE_GRADIENT
LINEAR_SOLVER_PREC= JACOBI
LINEAR_SOLVER_ERROR= 1E-9
LINEAR_SOLVER_ITER= 50000

DISCADJ_LIN_SOLVER = CONJUGATE_GRADIENT
DISCADJ_LIN_PREC = JACOBI

CONV_CRITERIA= RESIDUAL
CONV_RESIDUAL_MINVAL= -10
CONV_STARTITER= 10
CONV_CAUCHY_ELEMS= 100
CONV_CAUCHY_EPS= 1E-5

VOLUME_FILENAME= results_beam

CONV_FILENAME= history

BREAKDOWN_FILENAME= forces_breakdown.dat
SOLUTION_FILENAME= solution_beam.dat
RESTART_FILENAME= restart_beam.dat
SOLUTION_ADJ_FILENAME= solution_flow_adj.dat
RESTART_ADJ_FILENAME= restart_flow_adj.dat

WRT_SRF_SOL = NO

MESH_FORMAT= SU2
TABULAR_FORMAT= CSV
