%%%%%%%%%%%%%%%%%%%%%%%%%%%%%%%%%%%%%%%%%%%%%%%%%%%%%%%%%%%%%%%%%%%%%%%%%%%%%%%%
% SU2 configuration file                                                       %
% Case description: Regression test for coupled adjoints                       %
% Author: R.Sanchez                                                            %
% Institution: Imperial College London                                         %
% Date: 2017.11.29                                                             %
% File Version 6.2.0 "Falcon"                                                   %
%%%%%%%%%%%%%%%%%%%%%%%%%%%%%%%%%%%%%%%%%%%%%%%%%%%%%%%%%%%%%%%%%%%%%%%%%%%%%%%%

SOLVER= ELASTICITY

MATH_PROBLEM= DISCRETE_ADJOINT

RESTART_SOL= NO

PRESTRETCH = YES
PRESTRETCH_FILENAME = prestretch.dat

DE_EFFECTS = YES
ELECTRIC_FIELD_CONST = 4.25E-11
ELECTRIC_FIELD_DIR = (0.0,1.0)
ELECTRIC_FIELD_MOD = 20E5

OBJECTIVE_FUNCTION = REFERENCE_GEOMETRY 


SURFACE_MOVEMENT= FLUID_STRUCTURE_STATIC
REFERENCE_GEOMETRY = YES
REFERENCE_GEOMETRY_FILENAME = reference_geometry.dat
REFERENCE_GEOMETRY_FORMAT = SU2

DISCADJ_LIN_SOLVER = CONJUGATE_GRADIENT
DISCADJ_LIN_PREC = JACOBI

WRT_BINARY_RESTART=NO
READ_BINARY_RESTART=NO

INNER_ITER= 1
OUTER_ITER= 4

STAT_RELAX_PARAMETER= 1.0
BGS_RELAXATION = FIXED_PARAMETER
PREDICTOR_ORDER=0


CONSERVATIVE_INTERPOLATION = YES

GEOMETRIC_CONDITIONS= LARGE_DEFORMATIONS
MATERIAL_MODEL= NEO_HOOKEAN
MATERIAL_COMPRESSIBILITY= COMPRESSIBLE

ELASTICITY_MODULUS=34150
POISSON_RATIO=0.0
MATERIAL_DENSITY=402.287
FORMULATION_ELASTICITY_2D = PLANE_STRESS

NONLINEAR_FEM_SOLUTION_METHOD = NEWTON_RAPHSON
NONLINEAR_FEM_INT_ITER = 5

MARKER_CLAMPED = ( Clamped_Right, Clamped_Left )
MARKER_PRESSURE= ( LowerWallS, 0, UpperWallS, 0)
MARKER_FLUID_LOAD= ( LowerWallS, UpperWallS)

%UNST_INT_ITER= 50

AOA= 4.0
SIDESLIP_ANGLE= 0.0
REYNOLDS_NUMBER= 2500
FREESTREAM_OPTION = DENSITY_FS
FREESTREAM_DENSITY = 1.0
VISCOSITY_MODEL = CONSTANT_VISCOSITY
MU_CONSTANT = 5.464E-5
INIT_OPTION = TD_CONDITIONS
MACH_NUMBER = 0.2
MACH_MOTION = 0.2
FREESTREAM_PRESSURE = 17.857142857
FREESTREAM_TEMPERATURE = 0.062207438

REF_ORIGIN_MOMENT_X = 0.00
REF_ORIGIN_MOMENT_Y = 0.00
REF_ORIGIN_MOMENT_Z = 0.00
REF_AREA= 0.1366
REYNOLDS_LENGTH=0.1366

MARKER_HEATFLUX= ( Wall, 0.0, UpperWall, 0.0, LowerWall, 0.0)
MARKER_FAR = ( Farfield )

MARKER_PLOTTING= ( UpperWall, LowerWall, Wall)
MARKER_MONITORING= ( UpperWall, LowerWall, Wall)

VOLUME_FILENAME= results_beam

CONV_FILENAME= history

BREAKDOWN_FILENAME= forces_breakdown.dat

SOLUTION_FILENAME= solution_beam.dat

RESTART_FILENAME= restart_beam.dat

SOLUTION_ADJ_FILENAME= solution_flow_adj.dat
RESTART_ADJ_FILENAME= restart_flow_adj.dat

WRT_SRF_SOL = NO

MESH_FORMAT= SU2
TABULAR_FORMAT= CSV

WRT_CON_FREQ= 1
WRT_CON_FREQ_DUALTIME= 1
WRT_SOL_FREQ= 1
WRT_SOL_FREQ_DUALTIME= 5

DEFORM_STIFFNESS_TYPE = INVERSE_VOLUME
DEFORM_LINEAR_SOLVER = CONJUGATE_GRADIENT

DEFORM_LINEAR_SOLVER_PREC = JACOBI
DEFORM_LINEAR_SOLVER_ERROR = 1E-5
DEFORM_LINEAR_SOLVER_ITER = 5000

LINEAR_SOLVER= CONJUGATE_GRADIENT
LINEAR_SOLVER_PREC= JACOBI
LINEAR_SOLVER_ERROR= 1E-9
LINEAR_SOLVER_ITER= 50000

CONV_CRITERIA= RESIDUAL
CONV_RESIDUAL_MINVAL= -10
CONV_STARTITER= 10
CONV_CAUCHY_ELEMS= 100
CONV_CAUCHY_EPS= 1E-5

