%%%%%%%%%%%%%%%%%%%%%%%%%%%%%%%%%%%%%%%%%%%%%%%%%%%%%%%%%%%%%%%%%%%%%%%%%%%%%%%%
% SU2 configuration file                                                       %
% Case description: Regression test for coupled adjoints                       %
% Author: R.Sanchez                                                            %
% Institution: Imperial College London                                         %
% Date: 2017.11.29                                                             %
% File Version 7.0.1 "Blackbird"                                                   %
%%%%%%%%%%%%%%%%%%%%%%%%%%%%%%%%%%%%%%%%%%%%%%%%%%%%%%%%%%%%%%%%%%%%%%%%%%%%%%%%

SOLVER= NAVIER_STOKES

MATH_PROBLEM= DISCRETE_ADJOINT

RESTART_SOL= NO

WRT_BINARY_RESTART=NO
READ_BINARY_RESTART=NO

INNER_ITER= 50

STAT_RELAX_PARAMETER= 1.0
BGS_RELAXATION = FIXED_PARAMETER
PREDICTOR_ORDER=0

AOA= 4.0
SIDESLIP_ANGLE= 0.0
REYNOLDS_NUMBER= 2500
FREESTREAM_OPTION = DENSITY_FS
FREESTREAM_DENSITY = 1.0
VISCOSITY_MODEL = CONSTANT_VISCOSITY
MU_CONSTANT = 5.464E-5
INIT_OPTION = TD_CONDITIONS
MACH_NUMBER = 0.2
MACH_MOTION = 0.2
FREESTREAM_PRESSURE = 17.857142857
FREESTREAM_TEMPERATURE = 0.062207438

REF_ORIGIN_MOMENT_X = 0.00
REF_ORIGIN_MOMENT_Y = 0.00
REF_ORIGIN_MOMENT_Z = 0.00
REF_AREA= 0.1366
REYNOLDS_LENGTH=0.1366

MARKER_HEATFLUX= ( Wall, 0.0, UpperWall, 0.0, LowerWall, 0.0)
MARKER_FAR = ( Farfield )
MARKER_PLOTTING= ( UpperWall, LowerWall, Wall)
MARKER_MONITORING= ( UpperWall, LowerWall, Wall)
SURFACE_MOVEMENT= FLUID_STRUCTURE_STATIC

WRT_CON_FREQ= 1
WRT_CON_FREQ_DUALTIME= 1
WRT_SOL_FREQ= 1
WRT_SOL_FREQ_DUALTIME= 5

DEFORM_STIFFNESS_TYPE = INVERSE_VOLUME
DEFORM_LINEAR_SOLVER = CONJUGATE_GRADIENT

DEFORM_LINEAR_SOLVER_PREC = JACOBI
DEFORM_LINEAR_SOLVER_ERROR = 1E-5
DEFORM_LINEAR_SOLVER_ITER = 5000

NUM_METHOD_GRAD= WEIGHTED_LEAST_SQUARES
CFL_NUMBER= 1.0
RK_ALPHA_COEFF= ( 0.66667, 0.66667, 1.000000 )

LINEAR_SOLVER= FGMRES
LINEAR_SOLVER_PREC= LU_SGS
LINEAR_SOLVER_ERROR= 1E-6
LINEAR_SOLVER_ITER= 2

DISCADJ_LIN_SOLVER= FGMRES
DISCADJ_LIN_PREC= JACOBI

CONV_NUM_METHOD_FLOW= ROE
MUSCL_FLOW= YES
SLOPE_LIMITER_FLOW= VENKATAKRISHNAN
VENKAT_LIMITER_COEFF= 1.0
JST_SENSOR_COEFF=( 0.5, 0.02 )
TIME_DISCRE_FLOW= EULER_IMPLICIT

CONV_CRITERIA= RESIDUAL
CONV_RESIDUAL_MINVAL= -10
CONV_STARTITER= 10
CONV_CAUCHY_ELEMS= 100
CONV_CAUCHY_EPS= 1E-5

VOLUME_FILENAME= results_flow
CONV_FILENAME= history
BREAKDOWN_FILENAME= forces_breakdown.dat
SOLUTION_FILENAME= solution_flow.dat
RESTART_FILENAME= restart_flow.dat
SOLUTION_ADJ_FILENAME= solution_flow_adj.dat
RESTART_ADJ_FILENAME= restart_flow_adj.dat

WRT_SRF_SOL = NO

MESH_FORMAT= SU2
TABULAR_FORMAT= CSV
