%%%%%%%%%%%%%%%%%%%%%%%%%%%%%%%%%%%%%%%%%%%%%%%%%%%%%%%%%%%%%%%%%%%%%%%%%%%%%%%%
% SU2 configuration file                                                       %
% Case description: Regression test for coupled adjoints                       %
% Author: R.Sanchez                                                            %
% Institution: Imperial College London                                         %
% Date: 2017.11.29                                                             %
% File Version 8.0.0 "Harrier"                                                     %
%%%%%%%%%%%%%%%%%%%%%%%%%%%%%%%%%%%%%%%%%%%%%%%%%%%%%%%%%%%%%%%%%%%%%%%%%%%%%%%%

SOLVER= NAVIER_STOKES

MATH_PROBLEM= DISCRETE_ADJOINT

RESTART_SOL= NO

READ_BINARY_RESTART=NO

INNER_ITER= 50

STAT_RELAX_PARAMETER= 1.0
BGS_RELAXATION = FIXED_PARAMETER
PREDICTOR_ORDER=0

AOA= 4.0
SIDESLIP_ANGLE= 0.0
REYNOLDS_NUMBER= 2500
FREESTREAM_OPTION = DENSITY_FS
FREESTREAM_DENSITY = 1.0
VISCOSITY_MODEL = CONSTANT_VISCOSITY
MU_CONSTANT = 5.464E-5
INIT_OPTION = TD_CONDITIONS
MACH_NUMBER = 0.2
MACH_MOTION = 0.2
FREESTREAM_PRESSURE = 17.857142857
FREESTREAM_TEMPERATURE = 0.062207438

REF_ORIGIN_MOMENT_X = 0.00
REF_ORIGIN_MOMENT_Y = 0.00
REF_ORIGIN_MOMENT_Z = 0.00
REF_AREA= 0.1366
REYNOLDS_LENGTH=0.1366

MARKER_HEATFLUX= ( Wall, 0.0, UpperWall, 0.0, LowerWall, 0.0)
MARKER_FAR = ( Farfield )
MARKER_PLOTTING= ( UpperWall, LowerWall, Wall)
MARKER_MONITORING= ( UpperWall, LowerWall, Wall)

DEFORM_MESH= YES
MARKER_DEFORM_MESH= ( UpperWall, LowerWall )


DEFORM_STIFFNESS_TYPE = INVERSE_VOLUME
DEFORM_POISSONS_RATIO = 1e6
DEFORM_LINEAR_SOLVER = CONJUGATE_GRADIENT
DEFORM_LINEAR_SOLVER_PREC = ILU
DEFORM_LINEAR_SOLVER_ERROR = 1E-8
DEFORM_LINEAR_SOLVER_ITER = 1000

NUM_METHOD_GRAD= WEIGHTED_LEAST_SQUARES
CFL_NUMBER= 100.0

LINEAR_SOLVER= FGMRES
LINEAR_SOLVER_PREC= LU_SGS
LINEAR_SOLVER_ERROR= 1E-3
LINEAR_SOLVER_ITER= 20

DISCADJ_LIN_SOLVER= FGMRES
DISCADJ_LIN_PREC= ILU

CONV_NUM_METHOD_FLOW= ROE
MUSCL_FLOW= YES
SLOPE_LIMITER_FLOW= VENKATAKRISHNAN
VENKAT_LIMITER_COEFF= 1.0
TIME_DISCRE_FLOW= EULER_IMPLICIT

CONV_RESIDUAL_MINVAL= -10
CONV_STARTITER= 0
CONV_CAUCHY_ELEMS= 100
CONV_CAUCHY_EPS= 1E-5

VOLUME_FILENAME= results_flow
CONV_FILENAME= history
BREAKDOWN_FILENAME= forces_breakdown.dat
SOLUTION_FILENAME= solution_flow.dat
RESTART_FILENAME= restart_flow.dat
SOLUTION_ADJ_FILENAME= solution_flow_adj.dat
RESTART_ADJ_FILENAME= restart_flow_adj.dat

MESH_FORMAT= SU2
TABULAR_FORMAT= CSV
