SOLVER= MULTIPHYSICS
MATH_PROBLEM= DISCRETE_ADJOINT
CONFIG_LIST=(configFlow.cfg, configFEA.cfg)

MARKER_ZONE_INTERFACE = (UpperWall, UpperWallS, LowerWall, LowerWallS)

OUTER_ITER= 7
MESH_FILENAME= mesh.su2

OBJECTIVE_FUNCTION = REFERENCE_GEOMETRY

SCREEN_OUTPUT= OUTER_ITER, AVG_BGS_RES[0], RMS_ADJ_DENSITY[0], SENS_E_0[1], SENS_NU_0[1]

%WRT_ZONE_CONV= YES
