SOLVER= MULTIPHYSICS
MATH_PROBLEM= DISCRETE_ADJOINT
CONFIG_LIST=(configFlow.cfg, configFEA.cfg)

MARKER_ZONE_INTERFACE = (UpperWall, UpperWallS, LowerWall, LowerWallS)

ADJ_FSI= YES
OUTER_ITER= 4
MESH_FILENAME= mesh.su2

OBJECTIVE_FUNCTION = REFERENCE_GEOMETRY
