%%%%%%%%%%%%%%%%%%%%%%%%%%%%%%%%%%%%%%%%%%%%%%%%%%%%%%%%%%%%%%%%%%%%%%%%%%%%%%%%
%                                                                              %
% SU2 configuration file                                                       %
% Case description: 2D Axial stage                                             %
% Author: S. Vitale                                                            %
% Institution: Delft University of Technology                                  %
% Date: Feb 28th, 2017                                                         %
% File Version 5.0.0"cardinal"                                                 %
%                                                                              %
%%%%%%%%%%%%%%%%%%%%%%%%%%%%%%%%%%%%%%%%%%%%%%%%%%%%%%%%%%%%%%%%%%%%%%%%%%%%%%%%
%
% ----------------------- DYNAMIC MESH DEFINITION -----------------------------%
%
% Type of dynamic mesh (NONE, ROTATING_FRAME)
GRID_MOVEMENT= ROTATING_FRAME
%
%
% Angular velocity vector (rad/s) about the motion origi. Example 1250 RPM -> 130.89969389957471 rad/s
ROTATION_RATE= 0.0 0.0 -1800.0
%
% Mesh input file
MESH_FILENAME= rotor35_Full.su2
