%%%%%%%%%%%%%%%%%%%%%%%%%%%%%%%%%%%%%%%%%%%%%%%%%%%%%%%%%%%%%%%%%%%%%%%%%%%%%%%%
%                                                                              %
% SU2 configuration file                                                       %
% Case description: Axial-stage full-annulus unsteady                          %
% Author: Chuanxiang Yan                                                       %
% Institution: Tsinghua University                                             %
% Date: 2024.06.27                                                             %
% File Version 8.0.1 "Harrier"                                                 %
%                                                                              %
%%%%%%%%%%%%%%%%%%%%%%%%%%%%%%%%%%%%%%%%%%%%%%%%%%%%%%%%%%%%%%%%%%%%%%%%%%%%%%%%
%
% ----------------------- DYNAMIC MESH DEFINITION -----------------------------%
%
% Type of dynamic mesh (NONE, ROTATING_FRAME)
GRID_MOVEMENT= ROTATING_FRAME

% Type of dynamic surface movement (NONE, DEFORMING, 
%                       MOVING_WALL, FLUID_STRUCTURE, FLUID_STRUCTURE_STATIC,
%                       AEROELASTIC, EXTERNAL, EXTERNAL_ROTATION,
%                       AEROELASTIC_RIGID_MOTION)
%SURFACE_MOVEMENT= MOVING_WALL
%
% Moving wall boundary marker(s) (NONE = no marker, ignored for RIGID_MOTION)
%MARKER_MOVING= ( SHROUD_2 )
%
% Coordinates of the motion origin
%SURFACE_MOTION_ORIGIN= 0 0 1
%
% Angular velocity vector (rad/s) about the motion origin
%SURFACE_ROTATION_RATE = 0.0 0.0 -1260.0
%
%
% Mesh input file
MESH_FILENAME= stator35_Full.su2

