%%%%%%%%%%%%%%%%%%%%%%%%%%%%%%%%%%%%%%%%%%%%%%%%%%%%%%%%%%%%%%%%%%%%%%%%%%%%%%%%
%                                                                              %
% SU2 configuration file                                                       %
% Case description: Laminar premixed hydrogen flame with heat exchanger        %
% Author: Evert Bunschoten                                                     %
% Institution: Delft University of Technology                                  %
% Date: 01/11/2023                                                             %
%                                                                              %
%%%%%%%%%%%%%%%%%%%%%%%%%%%%%%%%%%%%%%%%%%%%%%%%%%%%%%%%%%%%%%%%%%%%%%%%%%%%%%%%

% ------------- DIRECT, ADJOINT, AND LINEARIZED PROBLEM DEFINITION ------------%
%
SOLVER = INC_NAVIER_STOKES
KIND_TURB_MODEL= NONE
MATH_PROBLEM= DIRECT
RESTART_SOL =YES
% ---------------- INCOMPRESSIBLE FLOW CONDITION DEFINITION -------------------%
%
INC_DENSITY_MODEL= VARIABLE
INC_ENERGY_EQUATION = YES
INC_VELOCITY_INIT= (1.13, 0.0, 0.0 )
INC_TEMPERATURE_INIT= 300.0
THERMODYNAMIC_PRESSURE= 101325
INC_NONDIM= DIMENSIONAL

% -------------------- FLUID MODEL --------------------------------------- %
%
FLUID_MODEL= FLUID_FLAMELET
VISCOSITY_MODEL= FLAMELET
CONDUCTIVITY_MODEL= FLAMELET
DIFFUSIVITY_MODEL= FLAMELET
KIND_SCALAR_MODEL= FLAMELET
INTERPOLATION_METHOD= MLP
FILENAMES_INTERPOLATOR= (MLP_TD.mlp, MLP_PD.mlp, MLP_PPV.mlp, MLP_null.mlp)
PREFERENTIAL_DIFFUSION= YES

% -------------------- SCALAR TRANSPORT ---------------------------------------%
%
% Using an artificial spark to ignite the solution at some location and iteration
FLAME_INIT_METHOD= SPARK
% Spark parameters in order:
% x-location of spark center (m)
% y-location of spark center (m)
% z-location of spark center (m)
% Spark radius (m)
% Iteration at which the artificial spark starts
% Spark iteration duration
SPARK_INIT= (0.001, 0.0004, 0, 5e-4, 10, 10)

% Controlling variable source terms applied within the spark sphere for the spark
% duration.
SPARK_REACTION_RATES= (1000, 0, 0)

SPECIES_INIT = (-0.49904325357252965, 2226.901776784524, 0.01446751783896619)

% Passive reactants in flamelet problem 

CONTROLLING_VARIABLE_NAMES= (ProgressVariable, EnthalpyTot, MixtureFraction)
CONTROLLING_VARIABLE_SOURCE_NAMES= (ProdRateTot_PV, NULL, NULL)

SPECIES_CLIPPING=YES
SPECIES_CLIPPING_MAX=+4.5623852432084366e-01 +8.6731375409855954e+06 1.0 
SPECIES_CLIPPING_MIN= -6.8059708053507162e-01 -4.9308262569627967e+06 0.0

MARKER_INLET_SPECIES = (inlet, -0.49904325357252965, 2226.901776784524, 0.01446751783896619)

% -------------------- BOUNDARY CONDITION DEFINITION --------------------------%
%
MARKER_ISOTHERMAL= (burner_wall, 300, hex_wall, 300)
MARKER_SYM= (sides)
INC_INLET_TYPE= VELOCITY_INLET
MARKER_INLET = (inlet, 300.000, 0.575, 1.0, 0.0, 0.0)
INC_OUTLET_TYPE= PRESSURE_OUTLET
MARKER_OUTLET= (outlet, 0.0)
MARKER_ANALYZE_AVERAGE = AREA

% ------------- COMMON PARAMETERS DEFINING THE NUMERICAL METHOD ---------------%
%
NUM_METHOD_GRAD= GREEN_GAUSS
CFL_NUMBER =50
CFL_ADAPT= NO
ITER=5
OUTPUT_WRT_FREQ= 20
% ------------------------ LINEAR SOLVER DEFINITION ---------------------------%
%
LINEAR_SOLVER= FGMRES
LINEAR_SOLVER_PREC= ILU
LINEAR_SOLVER_ERROR= 1E-4
LINEAR_SOLVER_ITER=20
%
% -------------------- FLOW AND SPECIES NUMERICAL METHOD DEFINITION -----------------------%
%
CONV_NUM_METHOD_FLOW= FDS
CONV_NUM_METHOD_SPECIES= BOUNDED_SCALAR
MUSCL_FLOW= YES
MUSCL_SPECIES= YES
SLOPE_LIMITER_FLOW = NONE
SLOPE_LIMITER_SPECIES= NONE
TIME_DISCRE_FLOW= EULER_IMPLICIT
TIME_DISCRE_SPECIES= EULER_IMPLICIT

% --------------------------- CONVERGENCE PARAMETERS --------------------------%
%
CONV_FIELD = RMS_EnthalpyTot
CONV_RESIDUAL_MINVAL= -5
CONV_STARTITER= 20
SCREEN_OUTPUT = INNER_ITER RMS_PRESSURE RMS_ProgressVariable RMS_EnthalpyTot RMS_MixtureFraction
HISTORY_OUTPUT = WALL_TIME RMS_RES 
VOLUME_OUTPUT = SOLUTION

% ------------------------- INPUT/OUTPUT INFORMATION --------------------------%
%
MESH_FORMAT= SU2
MESH_FILENAME = 2Dhex_BL.su2
OUTPUT_FILES = (RESTART,PARAVIEW)
TABULAR_FORMAT = CSV
CONV_FILENAME= history
VOLUME_FILENAME= flow


