%%%%%%%%%%%%%%%%%%%%%%%%%%%%%%%%%%%%%%%%%%%%%%%%%%%%%%%%%%%%%%%%%%%%%%%%%%%%%%%%
%                                                                              %
% SU2 configuration file                                                       %
% Case description: Non-ideal compressible fluid flow in a converging-         %
%                   diverging supersonic nozzle with CoolProp library          %
% Author: Peng Yan, Alberto Guardone                                           %
% Institution: Politecnico di Milano                                           %
% Date: 2022.11.26                                                             %
% File Version 8.0.0 "Harrier"                                                 %
%                                                                              %
%%%%%%%%%%%%%%%%%%%%%%%%%%%%%%%%%%%%%%%%%%%%%%%%%%%%%%%%%%%%%%%%%%%%%%%%%%%%%%%%

% ------------- DIRECT, ADJOINT, AND LINEARIZED PROBLEM DEFINITION ------------%
SOLVER= RANS
KIND_TURB_MODEL= SST
MATH_PROBLEM= DIRECT
RESTART_SOL= YES
SYSTEM_MEASUREMENTS= SI

% -------------------- COMPRESSIBLE FREE-STREAM DEFINITION --------------------%
MACH_NUMBER= 1E-9
AOA= 0.0
SIDESLIP_ANGLE= 0.0
INIT_OPTION= TD_CONDITIONS
FREESTREAM_OPTION= TEMPERATURE_FS
FREESTREAM_PRESSURE= 904388
FREESTREAM_TEMPERATURE= 542.13
REF_DIMENSIONALIZATION= DIMENSIONAL

% ---- IDEAL GAS, POLYTROPIC, VAN DER WAALS AND PENG ROBINSON CONSTANTS -------%
FLUID_MODEL = COOLPROP
FLUID_NAME  = Nitrogen
VISCOSITY_MODEL = COOLPROP
CONDUCTIVITY_MODEL= COOLPROP

% -------------------- BOUNDARY CONDITION DEFINITION --------------------------%
MARKER_HEATFLUX= ( WALL, 0.0 )
MARKER_SYM= ( SYMMETRY )
MARKER_RIEMANN= ( INFLOW, TOTAL_CONDITIONS_PT, 904388, 542.13, 1.0, 0.0, 0.0, OUTFLOW, STATIC_PRESSURE, 200000.0, 0.0, 0.0, 0.0, 0.0 )

% ------------- COMMON PARAMETERS DEFINING THE NUMERICAL METHOD ---------------%
NUM_METHOD_GRAD= GREEN_GAUSS
CFL_NUMBER= 10.0
CFL_ADAPT= YES
CFL_ADAPT_PARAM= ( 0.1, 2.0, 10.0, 1000.0 )
MAX_DELTA_TIME= 1E6

% ----------- SLOPE LIMITER AND DISSIPATION SENSOR DEFINITION -----------------%
MUSCL_FLOW= YES
SLOPE_LIMITER_FLOW= NONE
MUSCL_TURB= NO

% ------------------------ LINEAR SOLVER DEFINITION ---------------------------%
LINEAR_SOLVER= FGMRES
LINEAR_SOLVER_PREC= ILU
LINEAR_SOLVER_ILU_FILL_IN= 0
LINEAR_SOLVER_ERROR= 1E-6
LINEAR_SOLVER_ITER= 10

% -------------------- FLOW NUMERICAL METHOD DEFINITION -----------------------%
CONV_NUM_METHOD_FLOW= ROE
ENTROPY_FIX_COEFF= 0.1
TIME_DISCRE_FLOW= EULER_IMPLICIT

% -------------------- TURBULENT NUMERICAL METHOD DEFINITION ------------------%
CONV_NUM_METHOD_TURB= SCALAR_UPWIND
TIME_DISCRE_TURB= EULER_IMPLICIT
CFL_REDUCTION_TURB= 1.0

% --------------------------- CONVERGENCE PARAMETERS --------------------------%
ITER= 101
CONV_RESIDUAL_MINVAL= -24
CONV_STARTITER= 10

% ------------------------- INPUT/OUTPUT INFORMATION --------------------------%
MESH_FILENAME= coolprop_nozzle.su2
MESH_FORMAT= SU2
MESH_OUT_FILENAME= mesh_out.su2
SOLUTION_FILENAME= solution_flow.dat
TABULAR_FORMAT= CSV
CONV_FILENAME= history
RESTART_FILENAME= restart_flow.dat
VOLUME_FILENAME= flow
SURFACE_FILENAME= surface_flow
OUTPUT_WRT_FREQ= 50
SCREEN_OUTPUT= (INNER_ITER, RMS_DENSITY, RMS_TKE, RMS_DISSIPATION, LIFT, DRAG)
