%%%%%%%%%%%%%%%%%%%%%%%%%%%%%%%%%%%%%%%%%%%%%%%%%%%%%%%%%%%%%%%%%%%%%%%%%%%%%%%%
%                                                                              %
% SU2 configuration file                                                       %
% Case description: Transonic turbulent flow around a NACA 64A010 airfoil      %
% Author: Thomas D. Economon                                                   %
% Institution: Stanford University                                             %
% Date: 2011.11.02                                                             %
% File Version 8.0.0 "Harrier"                                                 %
%                                                                              %
%%%%%%%%%%%%%%%%%%%%%%%%%%%%%%%%%%%%%%%%%%%%%%%%%%%%%%%%%%%%%%%%%%%%%%%%%%%%%%%%

% ------------- DIRECT, ADJOINT, AND LINEARIZED PROBLEM DEFINITION ------------%
%
SOLVER= NAVIER_STOKES
KIND_TURB_MODEL= SA
MATH_PROBLEM= DIRECT
RESTART_SOL= NO

% ------------------------- UNSTEADY SIMULATION -------------------------------%
%
TIME_MARCHING= DUAL_TIME_STEPPING-2ND_ORDER
TIME_STEP= 0.0023555025613149587
% 24 steps per period: 0.0024536485013697488
% 25 steps per period: 0.0023555025613149587
% 36 steps per period: 0.0016357592286692995
%
MAX_TIME= 0.59
% 10 periods: 0.5888756403287397
%
INNER_ITER= 2000
UNST_ADJOINT_ITER= 251
GRID_MOVEMENT= RIGID_MOTION
MACH_MOTION= 0.796
MOTION_ORIGIN= 0.248 0.0 0.0
PITCHING_OMEGA= 0.0 0.0 106.69842
PITCHING_AMPL= 0.0 0.0 1.01

% ----------- COMPRESSIBLE AND INCOMPRESSIBLE FREE-STREAM DEFINITION ----------%
%
MACH_NUMBER= 0.796
AOA= 0.0
FREESTREAM_TEMPERATURE= 288.15
REYNOLDS_NUMBER= 12560000.0
REYNOLDS_LENGTH= 1.0

% ---------------------- REFERENCE VALUE DEFINITION ---------------------------%
%
REF_ORIGIN_MOMENT_X = 0.248
REF_ORIGIN_MOMENT_Y = 0.00
REF_ORIGIN_MOMENT_Z = 0.00
REF_LENGTH= 1.0
REF_AREA= 1.0

% ----------------------- BOUNDARY CONDITION DEFINITION -----------------------%
%
MARKER_HEATFLUX= ( airfoil, 0.0 )
MARKER_FAR= ( farfield )

% ------------------------ SURFACES IDENTIFICATION ----------------------------%
%
MARKER_PLOTTING = ( airfoil )
MARKER_MONITORING = ( airfoil )
MARKER_DESIGNING = ( airfoil )

% ------------- COMMON PARAMETERS TO DEFINE THE NUMERICAL METHOD --------------%
%
NUM_METHOD_GRAD= GREEN_GAUSS
CFL_NUMBER= 4.0
CFL_ADAPT= NO
CFL_ADAPT_PARAM= ( 1.5, 0.5, 1.0, 100.0 )
RK_ALPHA_COEFF= ( 0.66667, 0.66667, 1.000000 )
EXT_ITER= 99999

% ------------------------ LINEAR SOLVER DEFINITION ---------------------------%
%
LINEAR_SOLVER= FGMRES
LINEAR_SOLVER_PREC= LU_SGS
LINEAR_SOLVER_ERROR= 1E-6
LINEAR_SOLVER_ITER= 5

% -------------------------- MULTIGRID PARAMETERS -----------------------------%
%
MGLEVEL= 2
MGCYCLE= W_CYCLE
MG_PRE_SMOOTH= ( 1, 2, 3, 3 )
MG_POST_SMOOTH= ( 0, 0, 0, 0 )
MG_CORRECTION_SMOOTH= ( 0, 0, 0, 0 )
MG_DAMP_RESTRICTION= 0.7
MG_DAMP_PROLONGATION= 0.7

% -------------------- FLOW NUMERICAL METHOD DEFINITION -----------------------%
%
CONV_NUM_METHOD_FLOW= JST
VENKAT_LIMITER_COEFF= 0.03
JST_SENSOR_COEFF= ( 0.5, 0.02 )
TIME_DISCRE_FLOW= EULER_IMPLICIT

% -------------------- TURBULENT NUMERICAL METHOD DEFINITION ------------------%
%
CONV_NUM_METHOD_TURB= SCALAR_UPWIND
MUSCL_TURB= NO
SLOPE_LIMITER_TURB= VENKATAKRISHNAN
TIME_DISCRE_TURB= EULER_IMPLICIT

% ---------------- ADJOINT-FLOW NUMERICAL METHOD DEFINITION -------------------%
%
OBJECTIVE_FUNCTION= DRAG
CONV_NUM_METHOD_ADJFLOW= JST
ADJ_SHARP_LIMITER_COEFF= 3.0
ADJ_JST_SENSOR_COEFF= ( 0.0, 0.01 )
CFL_REDUCTION_ADJFLOW= 0.9
LIMIT_ADJFLOW= 1E6
SENS_REMOVE_SHARP= YES
TIME_DISCRE_ADJFLOW= EULER_IMPLICIT
FROZEN_VISC_CONT= YES

% ----------------------- GEOMETRY EVALUATION PARAMETERS ----------------------%
%
GEO_MARKER= ( airfoil )
GEO_DESCRIPTION= AIRFOIL
GEO_MODE= FUNCTION

% ------------------------ GRID DEFORMATION PARAMETERS ------------------------%
%
DV_KIND= HICKS_HENNE
DV_MARKER= ( airfoil )
DV_PARAM= ( 1, 0.5 )
DV_VALUE= 0.05

% --------------------------- CONVERGENCE PARAMETERS --------------------------%
%
CONV_RESIDUAL_MINVAL= -8
CONV_STARTITER= 1
CONV_CAUCHY_ELEMS= 100
CONV_CAUCHY_EPS= 1E-5

% ------------------------- INPUT/OUTPUT INFORMATION --------------------------%
%
MESH_FILENAME= mesh_NACA64A010_turb.su2
MESH_FORMAT= SU2
MESH_OUT_FILENAME= mesh_out.su2
SOLUTION_FILENAME= restart_flow.dat
SOLUTION_ADJ_FILENAME= restart_adj.dat
TABULAR_FORMAT= CSV
CONV_FILENAME= history
RESTART_FILENAME= restart_flow.dat
RESTART_ADJ_FILENAME= restart_adj.dat
VOLUME_FILENAME= flow
VOLUME_ADJ_FILENAME= adjoint
GRAD_OBJFUNC_FILENAME= of_grad.dat
SURFACE_FILENAME= surface_flow
SURFACE_ADJ_FILENAME= surface_adjoint
OUTPUT_WRT_FREQ= 1

% --------------------- OPTIMAL SHAPE DESIGN DEFINITION -----------------------%
%
OPT_OBJECTIVE= DRAG * 0.001
OPT_CONSTRAINT= ( AREA > 0.0661121 ) * 0.001
DEFINITION_DV= ( 30, 1.0 | airfoil | 0, 0.961538461538 ); ( 30, 1.0 | airfoil | 0, 0.923076923077 ); ( 30, 1.0 | airfoil | 0, 0.884615384615 ); ( 30, 1.0 | airfoil | 0, 0.846153846154 ); ( 30, 1.0 | airfoil | 0, 0.807692307692 ); ( 30, 1.0 | airfoil | 0, 0.769230769231 ); ( 30, 1.0 | airfoil | 0, 0.730769230769 ); ( 30, 1.0 | airfoil | 0, 0.692307692308 ); ( 30, 1.0 | airfoil | 0, 0.653846153846 ); ( 30, 1.0 | airfoil | 0, 0.615384615385 ); ( 30, 1.0 | airfoil | 0, 0.576923076923 ); ( 30, 1.0 | airfoil | 0, 0.538461538462 ); ( 30, 1.0 | airfoil | 0, 0.5 ); ( 30, 1.0 | airfoil | 0, 0.461538461538 ); ( 30, 1.0 | airfoil | 0, 0.423076923077 ); ( 30, 1.0 | airfoil | 0, 0.384615384615 ); ( 30, 1.0 | airfoil | 0, 0.346153846154 ); ( 30, 1.0 | airfoil | 0, 0.307692307692 ); ( 30, 1.0 | airfoil | 0, 0.269230769231 ); ( 30, 1.0 | airfoil | 0, 0.230769230769 ); ( 30, 1.0 | airfoil | 0, 0.192307692308 ); ( 30, 1.0 | airfoil | 0, 0.153846153846 ); ( 30, 1.0 | airfoil | 0, 0.115384615385 ); ( 30, 1.0 | airfoil | 0, 0.0769230769231 ); ( 30, 1.0 | airfoil | 0, 0.0384615384615 ); ( 30, 1.0 | airfoil | 1, 0.0384615384615 ); ( 30, 1.0 | airfoil | 1, 0.0769230769231 ); ( 30, 1.0 | airfoil | 1, 0.115384615385 ); ( 30, 1.0 | airfoil | 1, 0.153846153846 ); ( 30, 1.0 | airfoil | 1, 0.192307692308 ); ( 30, 1.0 | airfoil | 1, 0.230769230769 ); ( 30, 1.0 | airfoil | 1, 0.269230769231 ); ( 30, 1.0 | airfoil | 1, 0.307692307692 ); ( 30, 1.0 | airfoil | 1, 0.346153846154 ); ( 30, 1.0 | airfoil | 1, 0.384615384615 ); ( 30, 1.0 | airfoil | 1, 0.423076923077 ); ( 30, 1.0 | airfoil | 1, 0.461538461538 ); ( 30, 1.0 | airfoil | 1, 0.5 ); ( 30, 1.0 | airfoil | 1, 0.538461538462 ); ( 30, 1.0 | airfoil | 1, 0.576923076923 ); ( 30, 1.0 | airfoil | 1, 0.615384615385 ); ( 30, 1.0 | airfoil | 1, 0.653846153846 ); ( 30, 1.0 | airfoil | 1, 0.692307692308 ); ( 30, 1.0 | airfoil | 1, 0.730769230769 ); ( 30, 1.0 | airfoil | 1, 0.769230769231 ); ( 30, 1.0 | airfoil | 1, 0.807692307692 ); ( 30, 1.0 | airfoil | 1, 0.846153846154 ); ( 30, 1.0 | airfoil | 1, 0.884615384615 ); ( 30, 1.0 | airfoil | 1, 0.923076923077 ); ( 30, 1.0 | airfoil | 1, 0.961538461538 )
