%%%%%%%%%%%%%%%%%%%%%%%%%%%%%%%%%%%%%%%%%%%%%%%%%%%%%%%%%%%%%%%%%%%%%%%%%%%%%%%%%
%                                                                              	%
% SU2 configuration file                                                       	%
% Case description: 2D Cylinder test case for CHT coupling						%
% Author: Ole Burghardt			 												%
% Institution: Chair for Scientific Computing, TU Kaiserslautern  				%
% Date: March 12th, 2018 														%
% File Version 6.0.1 "Falcon"                                                  	%
%                                                                              	%
%%%%%%%%%%%%%%%%%%%%%%%%%%%%%%%%%%%%%%%%%%%%%%%%%%%%%%%%%%%%%%%%%%%%%%%%%%%%%%%%%

PHYSICAL_PROBLEM= MULTIZONE

CONFIG_LIST = (configFlow.cfg, configSolid.cfg)

MARKER_ZONE_INTERFACE= (PIN, PINSD)

MESH_FILENAME= coupled_cht_cylinder2d.su2

TIME_DOMAIN = NO

OUTER_ITER = 11

% Only required by the python scripts
MATH_PROBLEM = DIRECT
WRT_SOL_FREQ = 100
