
%%%%%%%%%%%%%%%%%%%%%%%%%%%%%%%%%%%%%%%%%%%%%%%%%%%%%%%%%%%%%%%%%%%%%%%%%%%%%%%%%
%                                                                              	%
% SU2 configuration file                                                       	%
% Case description: 2D Cylinder test case for CHT coupling						%
% Author: Ole Burghardt			 												%
% Institution: Chair for Scientific Computing, TU Kaiserslautern  				%
% Date: March 12th, 2018 														%
% File Version 6.0.1 "Falcon"                                                  	%
%                                                                              	%
%%%%%%%%%%%%%%%%%%%%%%%%%%%%%%%%%%%%%%%%%%%%%%%%%%%%%%%%%%%%%%%%%%%%%%%%%%%%%%%%%

% ------------- DIRECT, ADJOINT, AND LINEARIZED PROBLEM DEFINITION ------------%

PHYSICAL_PROBLEM= HEAT_EQUATION_FVM

MATH_PROBLEM= DIRECT
RESTART_SOL= NO
SYSTEM_MEASUREMENTS= SI
WRT_BINARY_RESTART = YES

% ---------------- INCOMPRESSIBLE FLOW CONDITION DEFINITION -------------------%

INC_TEMPERATURE_INIT= 300.0

% ---------------- (SOLIDS) CONDUCTION CONDITION DEFINITION -------------------%

SOLID_TEMPERATURE_INIT= 350.0
SOLID_DENSITY= 2710

% ---- IDEAL GAS, POLYTROPIC, VAN DER WAALS AND PENG ROBINSON CONSTANTS -------%

SPECIFIC_HEAT_CP_SOLID = 896.0

% --------------------------- THERMAL CONDUCTIVITY MODEL ----------------------%

CONDUCTIVITY_MODEL= CONSTANT_PRANDTL
PRANDTL_LAM = 6.99091
THERMAL_CONDUCTIVITY_SOLID=236

% -------------------- BOUNDARY CONDITION DEFINITION --------------------------%

MARKER_SYM= ( SYMINNER )
INTEGRATED_HEATFLUX = YES
MARKER_HEATFLUX= ( INNERPIN, 4000.0 )
MARKER_CHT_INTERFACE= (PINSD)

% ------------------------ SURFACES IDENTIFICATION ----------------------------%

MARKER_PLOTTING = ( PINSD )
MARKER_MONITORING = ( PINSD )
EXTRA_HEAT_ZONE_OUTPUT = 2

% ------------- COMMON PARAMETERS DEFINING THE NUMERICAL METHOD ---------------%

NUM_METHOD_GRAD= GREEN_GAUSS
CFL_NUMBER= 100
CFL_ADAPT= YES
CFL_ADAPT_PARAM= ( 1.0, 0.8, 100.0, 100000.0 )
BETA_FACTOR= 50
MAX_DELTA_TIME= 1.0

% ------------------------ LINEAR SOLVER DEFINITION ---------------------------%

LINEAR_SOLVER= FGMRES
LINEAR_SOLVER_PREC= ILU
LINEAR_SOLVER_ERROR_HEAT= 1E-18
LINEAR_SOLVER_ITER_HEAT= 10

% -------------------- HEAT NUMERICAL METHOD DEFINITION -----------------------%

CONV_NUM_METHOD_HEAT = SPACE_CENTERED
MUSCL_HEAT= YES
JST_SENSOR_COEFF_HEAT= ( 0.5, 0.15 )
TIME_DISCRE_HEAT= EULER_IMPLICIT

% ------------------------- INPUT/OUTPUT INFORMATION --------------------------%

MESH_FILENAME= coupled_cht_cylinder2d.su2
MESH_FORMAT= SU2
SOLUTION_FLOW_FILENAME= solution_flow.dat
OUTPUT_FORMAT= TECPLOT
CONV_FILENAME= history
BREAKDOWN_FILENAME= 6rows_forces_breakdown.dat
RESTART_FLOW_FILENAME= solution_flow.dat
VOLUME_FLOW_FILENAME= flow
WRT_SOL_FREQ= 100
WRT_SOL_FREQ_DUALTIME= 1
WRT_CON_FREQ= 100
WRT_CON_FREQ_DUALTIME= 100
WRT_RESIDUALS= YES
WRT_LIMITERS= NO
WRT_SHARPEDGES= NO
LOW_MEMORY_OUTPUT= NO
READ_BINARY_RESTART= YES
