%%%%%%%%%%%%%%%%%%%%%%%%%%%%%%%%%%%%%%%%%%%%%%%%%%%%%%%%%%%%%%%%%%%%%%%%%%%%%%%%%
%                                                                              	%
% SU2 configuration file                                                       	%
% Case description: 2D Cylinder test case for CHT coupling						%
% Author: Ole Burghardt			 												%
% Institution: Chair for Scientific Computing, TU Kaiserslautern  				%
% Date: March 12th, 2018 														%
% File Version 6.0.1 "Falcon"                                                  	%
%                                                                              	%
%%%%%%%%%%%%%%%%%%%%%%%%%%%%%%%%%%%%%%%%%%%%%%%%%%%%%%%%%%%%%%%%%%%%%%%%%%%%%%%%%

% ------------- DIRECT, ADJOINT, AND LINEARIZED PROBLEM DEFINITION ------------%

PHYSICAL_PROBLEM= RANS
KIND_TURB_MODEL= SA
MATH_PROBLEM= DIRECT
REGIME_TYPE= INCOMPRESSIBLE
RESTART_SOL= NO
SYSTEM_MEASUREMENTS= SI
WRT_BINARY_RESTART = YES

% ---------------- INCOMPRESSIBLE FLOW CONDITION DEFINITION -------------------%

INC_DENSITY_MODEL= CONSTANT
INC_ENERGY_EQUATION= YES
INC_DENSITY_INIT= 998.2
INC_VELOCITY_INIT= ( 0.25, 0.0, 0.0 )
INC_TEMPERATURE_INIT= 300.0
INC_NONDIM= INITIAL_VALUES

%
% List of inlet types for incompressible flows. List length must
% match number of inlet markers. Options: VELOCITY_INLET, PRESSURE_INLET.
INC_INLET_TYPE= VELOCITY_INLET
%
% Damping coefficient for iterative updates at pressure inlets. (0.1 by default)
INC_INLET_DAMPING= 0.1
%
% List of outlet types for incompressible flows. List length must
% match number of outlet markers. Options: PRESSURE_OUTLET, MASS_FLOW_OUTLET
INC_OUTLET_TYPE= PRESSURE_OUTLET
%
% Damping coefficient for iterative updates at mass flow outlets. (0.1 by default)
INC_OUTLET_DAMPING= 0.1

% ---- IDEAL GAS, POLYTROPIC, VAN DER WAALS AND PENG ROBINSON CONSTANTS -------%

SPECIFIC_HEAT_CP = 4182.0

% --------------------------- VISCOSITY MODEL ---------------------------------%

VISCOSITY_MODEL=CONSTANT_VISCOSITY
MU_CONSTANT= 1.003E-3

% --------------------------- THERMAL CONDUCTIVITY MODEL ----------------------%

CONDUCTIVITY_MODEL= CONSTANT_PRANDTL
PRANDTL_LAM = 6.99091

% -------------------- BOUNDARY CONDITION DEFINITION --------------------------%

MARKER_INLET= ( IN, 300.0, 0.25, 1.0, 0.0, 0.0 )
MARKER_OUTLET= ( OUT, 0 )
MARKER_SYM= ( SYM )
MARKER_ISOTHERMAL= ( NOZZLE, 300.0 )

MARKER_CHT_INTERFACE= (PIN)

% ------------------------ SURFACES IDENTIFICATION ----------------------------%

MARKER_PLOTTING = ( PINSD )
MARKER_MONITORING = ( PINSD )
EXTRA_HEAT_ZONE_OUTPUT = 2

% ------------- COMMON PARAMETERS DEFINING THE NUMERICAL METHOD ---------------%

NUM_METHOD_GRAD= GREEN_GAUSS
CFL_NUMBER= 100
CFL_ADAPT= YES
CFL_ADAPT_PARAM= ( 1.0, 0.8, 100.0, 100000.0 )

BETA_FACTOR= 50
MAX_DELTA_TIME= 1.0

% ------------------------ LINEAR SOLVER DEFINITION ---------------------------%

LINEAR_SOLVER= FGMRES
LINEAR_SOLVER_PREC= ILU
LINEAR_SOLVER_ERROR= 1E-8
LINEAR_SOLVER_ITER= 10

% -------------------- FLOW NUMERICAL METHOD DEFINITION -----------------------%

CONV_NUM_METHOD_FLOW= JST
MUSCL_FLOW= YES
JST_SENSOR_COEFF= ( 0.5, 0.05 )
TIME_DISCRE_FLOW= EULER_IMPLICIT
RELAXATION_FACTOR_FLOW= 1.0

% -------------------- TURBULENT NUMERICAL METHOD DEFINITION ------------------%

CONV_NUM_METHOD_TURB= SCALAR_UPWIND
MUSCL_TURB= NO
TIME_DISCRE_TURB= EULER_IMPLICIT
CFL_REDUCTION_TURB= 1.0
RELAXATION_FACTOR_TURB= 1.0

% --------------------------- CONVERGENCE PARAMETERS --------------------------%

EXT_ITER= 1
CONV_CRITERIA= RESIDUAL
RESIDUAL_REDUCTION= 16
RESIDUAL_MINVAL= -32
STARTCONV_ITER= 200
CAUCHY_ELEMS= 100
CAUCHY_EPS= 1E-10
CAUCHY_FUNC_ADJFLOW= SENS_GEOMETRY

% ------------------------- INPUT/OUTPUT INFORMATION --------------------------%

MESH_FILENAME= coupled_cht_cylinder2d.su2
MESH_FORMAT= SU2
SOLUTION_FLOW_FILENAME= solution_flow.dat
OUTPUT_FORMAT= TECPLOT
CONV_FILENAME= history
BREAKDOWN_FILENAME= 6rows_forces_breakdown.dat
RESTART_FLOW_FILENAME= solution_flow.dat
VOLUME_FLOW_FILENAME= flow
SURFACE_FLOW_FILENAME= surface_flow
WRT_SOL_FREQ= 1
WRT_SOL_FREQ_DUALTIME= 1
WRT_CON_FREQ= 1
WRT_CON_FREQ_DUALTIME= 1
WRT_RESIDUALS= YES
WRT_LIMITERS= NO
WRT_SHARPEDGES= NO
LOW_MEMORY_OUTPUT= NO
READ_BINARY_RESTART= YES
