
%%%%%%%%%%%%%%%%%%%%%%%%%%%%%%%%%%%%%%%%%%%%%%%%%%%%%%%%%%%%%%%%%%%%%%%%%%%%%%%%%
%                                                                              	%
% SU2 configuration file                                                       	%
% Case description: 2D Cylinder test case for CHT coupling						%
% Author: Ole Burghardt			 												%
% Institution: Chair for Scientific Computing, TU Kaiserslautern  				%
% Date: March 12th, 2018 														%                                                              	%
% File Version 6.0.0 "Falcon"                                                  	%
%                                                                              	%
%%%%%%%%%%%%%%%%%%%%%%%%%%%%%%%%%%%%%%%%%%%%%%%%%%%%%%%%%%%%%%%%%%%%%%%%%%%%%%%%%

% Physical governing equations (EULER, NAVIER_STOKES)

PHYSICAL_PROBLEM= ZONE_SPECIFIC
PHYSICAL_PROBLEM_ZONEWISE= (RANS, HEAT_EQUATION_FVM)

WEAKLY_COUPLED_HEAT_EQUATION= YES

KIND_TURB_MODEL= SA

MATH_PROBLEM= DIRECT

RESTART_SOL= NO

REGIME_TYPE= INCOMPRESSIBLE

SYSTEM_MEASUREMENTS= SI

FREESTREAM_DENSITY= 998.2
FREESTREAM_VELOCITY= ( 0.25, 0.00, 0.00 )
FREESTREAM_VISCOSITY= 0.001003
FREESTREAM_TEMPERATURE = 300
PRANDTL_LAM = 6.99091


% additional parameters for heat transfer and solids
SPECIFIC_HEAT_FLUID=4182

TEMPERATURE_FREESTREAM_SOLID= 350
DENSITY_SOLID=2710
SPECIFIC_HEAT_SOLID=896
THERMAL_CONDUCTIVITY_SOLID=236

% -------------------- BOUNDARY CONDITION DEFINITION --------------------------%

INLET_TYPE= MASS_FLOW
MARKER_INLET= ( IN, 998.2, 0.25, 1.0, 0.0, 0.0 )
MARKER_OUTLET= ( OUT, 0 )

MARKER_SYM= ( SYM, SYMINNER)

MARKER_ISOTHERMAL= ( NOZZLE, 300.0)

INTEGRATED_HEATFLUX = YES
MARKER_HEATFLUX= ( INNERPIN, 4000.0 )

MARKER_CHT_INTERFACE= (PIN, PINSD)
MARKER_ZONE_INTERFACE= (PIN, PINSD)

MATCHING_MESH=YES

% ------------------------ SURFACES IDENTIFICATION ----------------------------%

MARKER_PLOTTING = ( PIN )
MARKER_MONITORING = ( PIN, PINSD )

EXTRA_HEAT_ZONE_OUTPUT = 2

% ------------- COMMON PARAMETERS DEFINING THE NUMERICAL METHOD ---------------%

NUM_METHOD_GRAD= GREEN_GAUSS

CFL_NUMBER= 100
CFL_NUMBER_SOLID= 100
CFL_ADAPT= YES
CFL_ADAPT_PARAM= ( 1.0, 0.8, 100.0, 100000.0 )

ARTCOMP_FACTOR= 50
MAX_DELTA_TIME= 1.0

% ------------------------ LINEAR SOLVER DEFINITION ---------------------------%
%
% Linear solver or smoother for implicit formulations (BCGSTAB, FGMRES, SMOOTHER_JACOBI, 
%                                                      SMOOTHER_ILU0, SMOOTHER_LUSGS, 
%                                                      SMOOTHER_LINELET)
LINEAR_SOLVER= FGMRES
%
% Preconditioner of the Krylov linear solver (ILU0, LU_SGS, LINELET, JACOBI)
LINEAR_SOLVER_PREC= ILU
%
% Minimum error of the linear solver for implicit formulations
LINEAR_SOLVER_ERROR= 1E-8
LINEAR_SOLVER_ERROR_HEAT= 1E-18
%
% Max number of iterations of the linear solver for the implicit formulation
LINEAR_SOLVER_ITER= 10
LINEAR_SOLVER_ITER_HEAT= 10

% -------------------- FLOW NUMERICAL METHOD DEFINITION -----------------------%
%
% Convective numerical method (JST, LAX-FRIEDRICH, CUSP, ROE, AUSM, HLLC,
%                              TURKEL_PREC, MSW)
CONV_NUM_METHOD_FLOW= JST
%
% Monotonic Upwind Scheme for Conservation Laws (TVD) in the flow equations.
%           Required for 2nd order upwind schemes (NO, YES)
MUSCL_FLOW= YES
%
% 2nd and 4th order artificial dissipation coefficients for
%     the JST method ( 0.5, 0.02 by default )
JST_SENSOR_COEFF= ( 0.5, 0.05 )
%
% Time discretization (RUNGE-KUTTA_EXPLICIT, EULER_IMPLICIT, EULER_EXPLICIT)
TIME_DISCRE_FLOW= EULER_IMPLICIT
%
% Relaxation coefficient
RELAXATION_FACTOR_FLOW= 1.0

% -------------------- TURBULENT NUMERICAL METHOD DEFINITION ------------------%
%
% Convective numerical method (SCALAR_UPWIND)
CONV_NUM_METHOD_TURB= SCALAR_UPWIND
%
% Monotonic Upwind Scheme for Conservation Laws (TVD) in the flow equations.
%           Required for 2nd order upwind schemes (NO, YES)
MUSCL_TURB= NO
%
% Time discretization (EULER_IMPLICIT)
TIME_DISCRE_TURB= EULER_IMPLICIT
%
% Reduction factor of the CFL coefficient in the turbulence problem
CFL_REDUCTION_TURB= 1.0
%
% Relaxation coefficient
RELAXATION_FACTOR_TURB= 1.0

% -------------------- HEAT NUMERICAL METHOD DEFINITION -----------------------%
%
% Convective numerical method (SCALAR_UPWIND, SPACE_CENTERED)
CONV_NUM_METHOD_HEAT = SPACE_CENTERED
%
% Monotonic Upwind Scheme for Conservation Laws (TVD) in the flow equations.
%           Required for 2nd order upwind schemes (NO, YES)
MUSCL_HEAT= YES
%
% 2nd and 4th order artificial dissipation coefficients for
%     the JST method ( 0.5, 0.02 by default )
JST_SENSOR_COEFF_HEAT= ( 0.5, 0.15 )
%
% Time discretization (EULER_IMPLICIT, EULER_EXPLICIT)
TIME_DISCRE_HEAT= EULER_IMPLICIT

% --------------------------- CONVERGENCE PARAMETERS --------------------------%
%
% Number of total iterations
EXT_ITER= 11
%
% Convergence criteria (CAUCHY, RESIDUAL)
%
CONV_CRITERIA= RESIDUAL
%
% Residual reduction (order of magnitude with respect to the initial value)
RESIDUAL_REDUCTION= 16
%
% Min value of the residual (log10 of the residual)
RESIDUAL_MINVAL= -32
%
% Start convergence criteria at iteration number
STARTCONV_ITER= 200
%
% Number of elements to apply the criteria
CAUCHY_ELEMS= 100
%
% Epsilon to control the series convergence
CAUCHY_EPS= 1E-10
%
% Direct function to apply the convergence criteria (LIFT, DRAG, NEARFIELD_PRESS)
% Adjoint function to apply the convergence criteria (SENS_GEOMETRY, SENS_MACH)
CAUCHY_FUNC_ADJFLOW= SENS_GEOMETRY

% ------------------------- INPUT/OUTPUT INFORMATION --------------------------%
%
% Mesh input file
MESH_FILENAME= coupled_cht_cylinder2d.su2
%
% Mesh input file format (SU2, CGNS)
MESH_FORMAT= SU2
%
% Mesh output file
MESH_OUT_FILENAME= Mesh_Out.su2
%
% Restart flow input file
SOLUTION_FLOW_FILENAME= solution_flow.dat
%
% Restart adjoint input file
SOLUTION_ADJ_FILENAME= solution_adj.dat
%
% Output file format (TECPLOT, TECPLOT_BINARY, PARAVIEW,
%                     FIELDVIEW, FIELDVIEW_BINARY)
OUTPUT_FORMAT= TECPLOT
%
% Output file convergence history (w/o extension) 
CONV_FILENAME= history
%
% Output file with the forces breakdown
BREAKDOWN_FILENAME= 6rows_forces_breakdown.dat
%
% Output file restart flow
RESTART_FLOW_FILENAME= restart_flow.dat
%
% Output file restart adjoint
RESTART_ADJ_FILENAME= restart_adj.dat
%clea
% Output file flow (w/o extension) variables
VOLUME_FLOW_FILENAME= flow
%
% Output file adjoint (w/o extension) variables
VOLUME_ADJ_FILENAME= adjoint
%
% Output Objective function
VALUE_OBJFUNC_FILENAME= of_eval.dat
%
% Output objective function gradient (using continuous adjoint)
GRAD_OBJFUNC_FILENAME= of_grad.dat
%
% Output file surface flow coefficient (w/o extension)
SURFACE_FLOW_FILENAME= surface_flow
%
% Output file surface adjoint coefficient (w/o extension)
SURFACE_ADJ_FILENAME= surface_adjoint
%
% Writing solution file frequency
WRT_SOL_FREQ= 100
%
% Writing solution file frequency for physical time steps (dual time)
WRT_SOL_FREQ_DUALTIME= 1
%
% Writing convergence history frequency
WRT_CON_FREQ= 1
%
% Writing convergence history frequency (dual time, only written to screen)
WRT_CON_FREQ_DUALTIME= 100
%
% Output residual values in the solution files
WRT_RESIDUALS= YES
%
% Output limiters values in the solution files
WRT_LIMITERS= NO
%
% Output the sharp edges detector
WRT_SHARPEDGES= NO
%
% Minimize the required output memory
LOW_MEMORY_OUTPUT= NO
%
% Verbosity of console output: NONE removes minor MPI overhead (NONE, HIGH)
CONSOLE_OUTPUT_VERBOSITY= HIGH
%
% Write binary restart files (YES, NO)
WRT_BINARY_RESTART= YES
%
% Read binary restart files (YES, NO)
READ_BINARY_RESTART= YES
