
%%%%%%%%%%%%%%%%%%%%%%%%%%%%%%%%%%%%%%%%%%%%%%%%%%%%%%%%%%%%%%%%%%%%%%%%%%%%%%%%%
%                                                                              	%
% SU2 configuration file                                                       	%
% Case description: 2D Cylinder test case for CHT coupling						%
% Author: Ole Burghardt			 												%
% Institution: Chair for Scientific Computing, TU Kaiserslautern  				%
% Date: March 12th, 2018 														%                                                              	%
% File Version 6.2.0 "Falcon"                                                  	%
%                                                                              	%
%%%%%%%%%%%%%%%%%%%%%%%%%%%%%%%%%%%%%%%%%%%%%%%%%%%%%%%%%%%%%%%%%%%%%%%%%%%%%%%%%

% ------------- DIRECT, ADJOINT, AND LINEARIZED PROBLEM DEFINITION ------------%

PHYSICAL_PROBLEM= ZONE_SPECIFIC
PHYSICAL_PROBLEM_ZONEWISE= (RANS, HEAT_EQUATION_FVM)

KIND_TURB_MODEL= SA

MATH_PROBLEM= DIRECT

REGIME_TYPE= INCOMPRESSIBLE

RESTART_SOL= NO

SYSTEM_MEASUREMENTS= SI

% ---------------- INCOMPRESSIBLE FLOW CONDITION DEFINITION -------------------%

INC_DENSITY_MODEL= CONSTANT

INC_ENERGY_EQUATION= YES

INC_DENSITY_INIT= 998.2

INC_VELOCITY_INIT= ( 0.25, 0.0, 0.0 )

INC_TEMPERATURE_INIT= 300.0

INC_NONDIM= INITIAL_VALUES

% ---------------- (SOLIDS) CONDUCTION CONDITION DEFINITION -------------------%

SOLID_TEMPERATURE_INIT= 350.0

SOLID_DENSITY= 2710

% ---- IDEAL GAS, POLYTROPIC, VAN DER WAALS AND PENG ROBINSON CONSTANTS -------%

SPECIFIC_HEAT_CP = 4182.0

SPECIFIC_HEAT_CP_SOLID = 896.0

% --------------------------- VISCOSITY MODEL ---------------------------------%

VISCOSITY_MODEL=CONSTANT_VISCOSITY

MU_CONSTANT= 1.003E-3

% --------------------------- THERMAL CONDUCTIVITY MODEL ----------------------%

CONDUCTIVITY_MODEL= CONSTANT_PRANDTL

PRANDTL_LAM = 6.99091

THERMAL_CONDUCTIVITY_SOLID=236

% -------------------- BOUNDARY CONDITION DEFINITION --------------------------%

MARKER_INLET= ( IN, 300.0, 0.25, 1.0, 0.0, 0.0 )

MARKER_OUTLET= ( OUT, 0 )

MARKER_SYM= ( SYM, SYMINNER )

MARKER_ISOTHERMAL= ( NOZZLE, 300.0 )

INTEGRATED_HEATFLUX = YES
MARKER_HEATFLUX= ( INNERPIN, 4000.0 )

MARKER_CHT_INTERFACE= (PIN, PINSD)
MARKER_ZONE_INTERFACE= (PIN, PINSD)

% ------------------------ SURFACES IDENTIFICATION ----------------------------%

MARKER_PLOTTING = ( PINSD )

MARKER_MONITORING = ( PINSD )

EXTRA_HEAT_ZONE_OUTPUT = 2

% ------------- COMMON PARAMETERS DEFINING THE NUMERICAL METHOD ---------------%

NUM_METHOD_GRAD= GREEN_GAUSS

CFL_NUMBER= 100

CFL_NUMBER_SOLID= 100

CFL_ADAPT= YES
CFL_ADAPT_PARAM= ( 1.0, 0.8, 100.0, 100000.0 )

BETA_FACTOR= 50

MAX_DELTA_TIME= 1.0

% ------------------------ LINEAR SOLVER DEFINITION ---------------------------%

LINEAR_SOLVER= FGMRES

LINEAR_SOLVER_PREC= ILU

LINEAR_SOLVER_ERROR= 1E-8
LINEAR_SOLVER_ERROR_HEAT= 1E-18

LINEAR_SOLVER_ITER= 10
LINEAR_SOLVER_ITER_HEAT= 10

% -------------------- FLOW NUMERICAL METHOD DEFINITION -----------------------%

CONV_NUM_METHOD_FLOW= JST

MUSCL_FLOW= YES

JST_SENSOR_COEFF= ( 0.5, 0.05 )

TIME_DISCRE_FLOW= EULER_IMPLICIT

RELAXATION_FACTOR_FLOW= 1.0

% -------------------- TURBULENT NUMERICAL METHOD DEFINITION ------------------%

CONV_NUM_METHOD_TURB= SCALAR_UPWIND

MUSCL_TURB= NO

TIME_DISCRE_TURB= EULER_IMPLICIT

CFL_REDUCTION_TURB= 1.0

RELAXATION_FACTOR_TURB= 1.0

% -------------------- HEAT NUMERICAL METHOD DEFINITION -----------------------%

CONV_NUM_METHOD_HEAT = SPACE_CENTERED

MUSCL_HEAT= YES

JST_SENSOR_COEFF_HEAT= ( 0.5, 0.15 )

TIME_DISCRE_HEAT= EULER_IMPLICIT

% --------------------------- CONVERGENCE PARAMETERS --------------------------%

EXT_ITER= 11

CONV_CRITERIA= RESIDUAL

RESIDUAL_REDUCTION= 16

RESIDUAL_MINVAL= -32

STARTCONV_ITER= 200

CAUCHY_ELEMS= 100

CAUCHY_EPS= 1E-10

CAUCHY_FUNC_ADJFLOW= SENS_GEOMETRY

% ------------------------- INPUT/OUTPUT INFORMATION --------------------------%

MESH_FILENAME= coupled_cht_cylinder2d.su2

MESH_FORMAT= SU2

MESH_OUT_FILENAME= Mesh_Out.su2

SOLUTION_FLOW_FILENAME= solution_flow.dat

SOLUTION_ADJ_FILENAME= solution_adj.dat

OUTPUT_FORMAT= TECPLOT

CONV_FILENAME= history

BREAKDOWN_FILENAME= 6rows_forces_breakdown.dat

RESTART_FLOW_FILENAME= restart_flow.dat

RESTART_ADJ_FILENAME= restart_adj.dat

VOLUME_FLOW_FILENAME= flow

VOLUME_ADJ_FILENAME= adjoint

VALUE_OBJFUNC_FILENAME= of_eval.dat

GRAD_OBJFUNC_FILENAME= of_grad.dat

SURFACE_FLOW_FILENAME= surface_flow

SURFACE_ADJ_FILENAME= surface_adjoint

WRT_SOL_FREQ= 100

WRT_SOL_FREQ_DUALTIME= 1

WRT_CON_FREQ= 1

WRT_CON_FREQ_DUALTIME= 100

WRT_RESIDUALS= YES

WRT_LIMITERS= NO

WRT_SHARPEDGES= NO

LOW_MEMORY_OUTPUT= NO

READ_BINARY_RESTART= YES
