%%%%%%%%%%%%%%%%%%%%%%%%%%%%%%%%%%%%%%%%%%%%%%%%%%%%%%%%%%%%%%%%%%%%%%%%%%%%%%%%
%                                                                              %
% SU2 configuration file                                                       %
% Case description: Turbulent flow over rough flat plate with zero             %
%                   pressure gradient                                          %
% Author: Akshay Koodly                                                        %
% Date: 2020.07.07                                                             %
% File Version 8.0.0 "Harrier"                                                 %
%                                                                              %
%%%%%%%%%%%%%%%%%%%%%%%%%%%%%%%%%%%%%%%%%%%%%%%%%%%%%%%%%%%%%%%%%%%%%%%%%%%%%%%%

% ------------- DIRECT, ADJOINT, AND LINEARIZED PROBLEM DEFINITION ------------%
%
SOLVER= INC_RANS
KIND_TURB_MODEL= SA
MATH_PROBLEM= DIRECT
RESTART_SOL= NO

% ---------------- INCOMPRESSIBLE FLOW CONDITION DEFINITION -------------------%
%
INC_DENSITY_MODEL= CONSTANT
INC_ENERGY_EQUATION = NO
INC_DENSITY_INIT= 1.32905
INC_VELOCITY_INIT= ( 69.4448, 0.0, 0.0 )
INC_TEMPERATURE_INIT= 300.0
INC_NONDIM= INITIAL_VALUES
INC_DENSITY_REF= 1.0
INC_VELOCITY_REF= 1.0
INC_TEMPERATURE_REF = 1.0
INC_INLET_TYPE= VELOCITY_INLET

% --------------------------- VISCOSITY MODEL ---------------------------------%
%
VISCOSITY_MODEL= CONSTANT_VISCOSITY
MU_CONSTANT= 1.84592e-05
MU_REF= 1.716E-5
MU_T_REF= 273.15
SUTHERLAND_CONSTANT= 110.4

% ---------------------- REFERENCE VALUE DEFINITION ---------------------------%
%
REF_ORIGIN_MOMENT_X = 0.25
REF_ORIGIN_MOMENT_Y = 0.00
REF_ORIGIN_MOMENT_Z = 0.00
REF_LENGTH= 1.0
REF_AREA= 2.0

% -------------------- BOUNDARY CONDITION DEFINITION --------------------------%
%
MARKER_HEATFLUX= ( wall, 0.0 )
WALL_ROUGHNESS = (wall, 0.000246)
MARKER_INLET= ( inlet, 300.0, 69.4448, 1.0, 0.0, 0.0 )
MARKER_OUTLET= ( outlet, 0.0, farfield, 0.0 )
INC_OUTLET_TYPE= PRESSURE_OUTLET,PRESSURE_OUTLET
MARKER_SYM= ( symmetry )
MARKER_PLOTTING= ( wall )
MARKER_MONITORING= ( wall )

% ------------- COMMON PARAMETERS DEFINING THE NUMERICAL METHOD ---------------%
%
NUM_METHOD_GRAD= GREEN_GAUSS
CFL_NUMBER= 100.0
CFL_ADAPT= NO
CFL_ADAPT_PARAM= ( 1.5, 0.5, 1.1, 100.0 )
RK_ALPHA_COEFF= ( 0.66667, 0.66667, 1.000000 )
ITER= 1000

% ------------------------ LINEAR SOLVER DEFINITION ---------------------------%
%
LINEAR_SOLVER= FGMRES
LINEAR_SOLVER_PREC= ILU
LINEAR_SOLVER_ILU_FILL_IN= 0
LINEAR_SOLVER_ERROR= 1E-12
LINEAR_SOLVER_ITER= 20

% ----------------------- SLOPE LIMITER DEFINITION ----------------------------%
%
VENKAT_LIMITER_COEFF= 0.1
ADJ_SHARP_LIMITER_COEFF= 3.0
REF_SHARP_EDGES= 3.0
SENS_REMOVE_SHARP= NO

% -------------------- FLOW NUMERICAL METHOD DEFINITION -----------------------%
%
CONV_NUM_METHOD_FLOW= FDS
MUSCL_FLOW= YES
SLOPE_LIMITER_FLOW= NONE
JST_SENSOR_COEFF= ( 0.5, 0.02 )
TIME_DISCRE_FLOW= EULER_IMPLICIT

% -------------------- TURBULENT NUMERICAL METHOD DEFINITION ------------------%
%
CONV_NUM_METHOD_TURB= SCALAR_UPWIND
MUSCL_TURB= NO
SLOPE_LIMITER_TURB= VENKATAKRISHNAN
TIME_DISCRE_TURB= EULER_IMPLICIT

% --------------------------- CONVERGENCE PARAMETERS --------------------------%
%
CONV_FIELD= RMS_VELOCITY-X
CONV_RESIDUAL_MINVAL= -14
CONV_STARTITER= 10

% ------------------------- INPUT/OUTPUT INFORMATION --------------------------%
%
MESH_FILENAME= mesh_flatplate_turb_137x97.su2
MESH_FORMAT= SU2
MESH_OUT_FILENAME= mesh_out.su2
SOLUTION_FILENAME= restart_flow
TABULAR_FORMAT= CSV
OUTPUT_FILES= RESTART, PARAVIEW, SURFACE_PARAVIEW
CONV_FILENAME= history
RESTART_FILENAME= restart_flow
VOLUME_FILENAME= flow
SURFACE_FILENAME= surface_flow
OUTPUT_WRT_FREQ= 100, 50, 50
SCREEN_OUTPUT= (WALL_TIME,INNER_ITER, RMS_VELOCITY-X, RMS_NU_TILDE, LIFT,DRAG)
WRT_FORCES_BREAKDOWN= YES
