%%%%%%%%%%%%%%%%%%%%%%%%%%%%%%%%%%%%%%%%%%%%%%%%%%%%%%%%%%%%%%%%%%%%%%%%%%%%%%%%
%                                                                              %
% Stanford University unstructured (SU2) configuration file                    %
% Case description: Hypersonic inviscid flow (RAM-C_II)                        %
% Author: Sean Copeland, Francisco Palacios                                    %
% Institution: Stanford University                                             %
% Date: 2012.09.18                                                             %
% File Version 1.0.10 October 28th, 2011                                       %
%                                                                              %
%%%%%%%%%%%%%%%%%%%%%%%%%%%%%%%%%%%%%%%%%%%%%%%%%%%%%%%%%%%%%%%%%%%%%%%%%%%%%%%%

% ------------- DIRECT, ADJOINT, AND LINEARIZED PROBLEM DEFINITION ------------%
% Physical governing equations (EULER, NAVIER_STOKES, NS_PLASMA)
PHYSICAL_PROBLEM= EULER
%
% Mathematical problem (DIRECT, ADJOINT, LINEARIZED)
MATH_PROBLEM= ADJOINT
%
% Restart solution (NO, YES)
RESTART_SOL= NO
%
% Axisymmetric simulation (NO, YES)
AXISYMMETRIC= NO

% ----------- COMPRESSIBLE AND INCOMPRESSIBLE FREE-STREAM DEFINITION ----------%
% Mach number (non-dimensional, based on the free-stream values)
MACH_NUMBER= 23.9

% Angle of attack (degrees)
AoA= 0.0

% Free-stream pressure (101325.0 N/m^2 by default, only Euler flows)  
FREESTREAM_PRESSURE= 17.66

% Free-stream temperature (273.15 K by default)
FREESTREAM_TEMPERATURE= 1500.0

FREESTREAM_SPECIES_TEMPERATURE= (1500.0, 1500.0)

% -------------- COMPRESSIBLE AND INCOMPRESSIBLE FLUID CONSTANTS --------------%
%
% Ratio of specific heats (1.4 (air), only for compressible flows)
GAMMA_VALUE= 1.66667
%
% Specific gas constant (287.87 J/kg*K (air), only for compressible flows)
GAS_CONSTANT= 287.87

% ---------------------- REFERENCE VALUE DEFINITION ---------------------------%
%
% Conversion factor for converting the grid to meters
CONVERT_TO_METER= 1.0
%
% Reference origin for moment computation
REF_ORIGIN_MOMENT= ( 0.25, 0.00, 0.00 )
%
% Reference length for pitching, rolling, and yawing non-dimensional moment
REF_LENGTH_MOMENT= 1.0
%
% Reference area for force coefficients (0 implies automatic calculation)
REF_AREA= 1.0
%
% Reference pressure (101325.0 N/m^2 by default)
REF_PRESSURE= 1.0
%
% Reference temperature (273.15 K by default)
REF_TEMPERATURE= 1.0
%
% Reference density (1.2886 Kg/m^3 (air), 998.2 Kg/m^3 (water)) 
REF_DENSITY= 1.0

% ----------------------- BOUNDARY CONDITION DEFINITION -----------------------%
%
% Marker of the Euler boundary (0 = no marker)
MARKER_EULER= ( Wall )
%
% Marker of the far field (0 = no marker)
MARKER_FAR= ( Inflow, Outflow )
%
MARKER_SYM= ( Symmetry )
%
% Marker of the surface which is going to be plotted or designed
MARKER_PLOTTING= ( Wall )
%
% Marker of the surface where the functional (Cd, Cl, etc.) will be evaluated
MARKER_MONITORING= ( Wall )

% ------------- COMMON PARAMETERS TO DEFINE THE NUMERICAL METHOD --------------%
% Numerical method for spatial gradients (GREEN_GAUSS, LEAST_SQUARES, 
%                                         WEIGHTED_LEAST_SQUARES)
NUM_METHOD_GRAD= GREEN_GAUSS
%
% Courant-Friedrichs-Lewy condition of the finest grid
CFL_NUMBER= 2.0
%
% CFL ramp (factor, number of iterations, CFL limit)
CFL_RAMP= ( 1.0, 50, 3.0 )
%
% Runge-Kutta alpha coefficients
RK_ALPHA_COEFF= ( 0.66667, 0.66667, 1.000000 )
%
% Runge-Kutta beta coefficients
RK_BETA_COEFF= ( 1.00000, 0.00000, 0.00000 )
%
% Number of total iterations
EXT_ITER= 125
%
% Linear solver for the implicit formulation (LU_SGS, SYM_GAUSS_SEIDEL, BCGSTAB, GMRES)
LINEAR_SOLVER= BCGSTAB
%
% Min error of the linear solver for the implicit formulation
LINEAR_SOLVER_ERROR= 1E-8
%
% Max number of iterations of the linear solver for the implicit formulation
LINEAR_SOLVER_ITER= 10

% -------------------------- MULTIGRID PARAMETERS -----------------------------%
%
% Multi-Grid Levels (0 = no multi-grid)
MGLEVEL= 0
%
% Multi-Grid Cycle (0 = V cycle, 1 = W Cycle)
MGCYCLE= 0
%
% Reduction factor of the CFL coefficient on the coarse levels
MG_CFL_REDUCTION= 0.5
%
% Maximum number of children in the agglomeration stage
MAX_CHILDREN= 150
%
% Maximum length of an agglomerated element (compared with the domain)
MAX_DIMENSION= 0.1
%
% Multi-Grid PreSmoothing Level
MG_PRE_SMOOTH= ( 1, 2, 2, 2 )
%
% Multi-Grid PostSmoothing Level
MG_POST_SMOOTH= ( 0, 0, 0, 0 )
%
% Jacobi implicit smoothing of the correction
MG_CORRECTION_SMOOTH= ( 0, 0, 0, 0 )
%
% Damping factor for the residual restriction
MG_DAMP_RESTRICTION= 0.5
%
% Damping factor for the correction prolongation
MG_DAMP_PROLONGATION= 0.5

% --------------------- FLOW NUMERICAL METHOD DEFINITION ----------------------%
% Convective numerical method (JST, LAX-FRIEDRICH, ROE-1ST_ORDER, 
%                              ROE-2ND_ORDER, AUSM-1ST_ORDER, AUSM-2ND_ORDER,
%                              HLLC-1ST_ORDER, HLLC-2ND_ORDER)
CONV_NUM_METHOD_FLOW= LAX-FRIEDRICH
%
% Slope limiter (NONE, VENKATAKRISHNAN)
SLOPE_LIMITER_FLOW= VENKATAKRISHNAN
%
% Coefficient for the limiter (smooth regions)
LIMITER_COEFF= 0.03
%
% 1st, 2nd and 4th order artificial dissipation coefficients
AD_COEFF_FLOW= ( 0.15, 0.5, 0.02 )
%
% Time discretization (RUNGE-KUTTA_EXPLICIT, EULER_IMPLICIT, EULER_EXPLICIT)
TIME_DISCRE_FLOW= EULER_IMPLICIT

% ---------------- ADJOINT-FLOW NUMERICAL METHOD DEFINITION -------------------%
%
% Adjoint problem boundary condition (DRAG, LIFT, SIDEFORCE, MOMENT_X,
%                                     MOMENT_Y, MOMENT_Z, EFFICIENCY, 
%                                     EQUIVALENT_AREA, NEARFIELD_PRESSURE,
%                                     FORCE_X, FORCE_Y, FORCE_Z, THRUST, TORQUE)
ADJ_OBJFUNC= LIFT
%
% Convective numerical method (JST, LAX-FRIEDRICH, ROE-1ST_ORDER, 
%                              ROE-2ND_ORDER)
CONV_NUM_METHOD_ADJ= LAX-FRIEDRICH
%
% 1st, 2nd, and 4th order artificial dissipation coefficients
AD_COEFF_ADJ= ( 0.25, 0.5, 0.02 )
%
% Reduction factor of the CFL coefficient in the adjoint problem
ADJ_CFL_REDUCTION= 0.15
%
% Source term numerical method (PIECEWISE_CONSTANT)
SOUR_NUM_METHOD_ADJ= PIECEWISE_CONSTANT
%
% Time discretization (RUNGE-KUTTA_EXPLICIT, EULER_IMPLICIT)
TIME_DISCRE_ADJ= EULER_IMPLICIT

% --------------------------- PARTITIONING STRATEGY ---------------------------%
%
% Number of partitions of the domain
NUMBER_PART= 0
%
% Write a paraview file for each partition (NO, YES)
VISUALIZE_PART= NO

% ------------------------- GRID ADAPTATION STRATEGY --------------------------%
%
% Percentage of new elements (% of the original number of elements)
NEW_ELEMS= 100
%
% Kind of grid adaptation (NONE, FULL, FULL_FLOW, GRAD_FLOW, FULL_ADJOINT,
%                          GRAD_ADJOINT, GRAD_FLOW_ADJ, ROBUST,
%                          FULL_LINEAR, COMPUTABLE, COMPUTABLE_ROBUST,
%                          REMAINING, WAKE, HORIZONTAL_PLANE, SMOOTHING,
%                          SUPERSONIC_SHOCK, TWOPHASE, CURVE_SURFACE)
KIND_ADAPT= GRAD_FLOW
%
% Scale factor for the dual volume
DUALVOL_POWER= 1.0
%
% Use analytical definition for surfaces (NONE, NACA0012_AIRFOIL, BIPARABOLIC,
%                                         NACA4412_AIRFOIL, CYLINDER)
ANALYTICAL_SURFDEF= NONE
%
% Before each computation do an implicit smoothing of the nodes coord (NO, YES)
SMOOTH_GEOMETRY= NO

% --------------------------- CONVERGENCE PARAMETERS --------------------------%
% Convergence criteria (CAUCHY, RESIDUAL)
%
CONV_CRITERIA= RESIDUAL
%
% Residual reduction (order of magnitude with respect to the initial value)
RESIDUAL_REDUCTION= 8
%
% Min value of the residual (log10 of the residual)
RESIDUAL_MINVAL= -8
%
% Start Cauchy criteria at iteration number
STARTCONV_ITER= 10
%
% Number of elements to apply the criteria
CAUCHY_ELEMS= 100
%
% Epsilon to control the series convergence
CAUCHY_EPS= 1E-6
%
% Function to apply the criteria (LIFT, DRAG, SENS_GEOMETRY, SENS_MACH,
%                                 DELTA_LIFT, DELTA_DRAG)
CAUCHY_FUNC_FLOW= DRAG
CAUCHY_FUNC_ADJ= SENS_GEOMETRY
%
% Epsilon for full multigrid method evaluation
FULLMG_CAUCHY_EPS= 1E-3

% ------------------------- INPUT/OUTPUT INFORMATION --------------------------%
%
% Mesh input file
MESH_FILENAME= mesh_RAMC.su2
%
% Mesh input file format (SU2, CGNS, NETCDF_ASCII)
MESH_FORMAT= SU2
%
% Divide rectangles into triangles (NO, YES)
DIVIDE_ELEMENTS= NO
%
% Convert a CGNS mesh to SU2 format (YES, NO)
CGNS_TO_SU2= NO
%
% Mesh output file
MESH_OUT_FILENAME= mesh_out.su2
%
% Restart flow input file
SOLUTION_FLOW_FILENAME= solution_flow.dat
%
% Restart adjoint input file
SOLUTION_ADJ_FILENAME= solution_adj.dat
%
% Output file format (PARAVIEW, TECPLOT, STL)
OUTPUT_FORMAT= TECPLOT
%
% Output file convergence history (w/o extension) 
CONV_FILENAME= history
%
% Output file restart flow
RESTART_FLOW_FILENAME= restart_flow.dat
%
% Output file restart adjoint
RESTART_ADJ_FILENAME= restart_adj.dat
%
% Output file flow (w/o extension) variables
VOLUME_FLOW_FILENAME= flow
%
% Output file adjoint (w/o extension) variables
VOLUME_ADJ_FILENAME= adjoint
%
% Output objective function gradient (using continuous adjoint)
GRAD_OBJFUNC_FILENAME= of_grad.dat
%
% Output file surface flow coefficient (w/o extension)
SURFACE_FLOW_FILENAME= surface_flow
%
% Output file surface adjoint coefficient (w/o extension)
SURFACE_ADJ_FILENAME= surface_adjoint
%
% Writing solution file frequency
WRT_SOL_FREQ= 500
%
% Writing convergence history frequency
WRT_CON_FREQ= 1
%
% Write unsteady data adding headers and prefixes (NO, YES)
WRT_UNSTEADY= NO
