%%%%%%%%%%%%%%%%%%%%%%%%%%%%%%%%%%%%%%%%%%%%%%%%%%%%%%%%%%%%%%%%%%%%%%%%%%%%%%%%
%
SOLVER= NAVIER_STOKES
KIND_TURB_MODEL= NONE
RESTART_SOL= NO

% -------------------- COMPRESSIBLE FREE-STREAM DEFINITION --------------------%
%
MACH_NUMBER= 0.1
AOA= 22.5
INIT_OPTION= TD_CONDITIONS
FREESTREAM_OPTION= TEMPERATURE_FS
FREESTREAM_TEMPERATURE= 300
FREESTREAM_PRESSURE= 99000

% ---------------------- REFERENCE VALUE DEFINITION ---------------------------%
%
REF_ORIGIN_MOMENT_X = 0.00
REF_ORIGIN_MOMENT_Y = 0.00
REF_ORIGIN_MOMENT_Z = 0.00
REF_LENGTH= 1
REF_AREA= 1
%
FLUID_MODEL= IDEAL_GAS
GAMMA_VALUE= 1.4
GAS_CONSTANT= 287.87
VISCOSITY_MODEL= CONSTANT_VISCOSITY
MU_CONSTANT= 0.001

% -------------------- BOUNDARY CONDITION DEFINITION --------------------------%
%
MARKER_PERIODIC= ( per1, per2, 0,0,0, 0,0,45, 0,0,0 )
MARKER_OUTLET= ( outlet, 99000.0 )
INLET_TYPE= TOTAL_CONDITIONS
MARKER_INLET= ( inlet, 300, 100000, 1, 0, 0 )
SPECIFIED_INLET_PROFILE= YES
INLET_FILENAME= inlet.dat
%
MARKER_ANALYZE= ( outlet, inlet )

% ------------- COMMON PARAMETERS DEFINING THE NUMERICAL METHOD ---------------%
%
NUM_METHOD_GRAD= GREEN_GAUSS
CFL_NUMBER= 100
CFL_ADAPT= NO
TIME_DISCRE_FLOW= EULER_IMPLICIT

% ------------------------ LINEAR SOLVER DEFINITION ---------------------------%
%
LINEAR_SOLVER= FGMRES
LINEAR_SOLVER_PREC= LU_SGS
LINEAR_SOLVER_ERROR= 0.1
LINEAR_SOLVER_ITER= 4

% -------------------- FLOW NUMERICAL METHOD DEFINITION -----------------------%
%
CONV_NUM_METHOD_FLOW= ROE
MUSCL_FLOW= YES
SLOPE_LIMITER_FLOW= VENKATAKRISHNAN_WANG
VENKAT_LIMITER_COEFF= 0.05

% --------------------------- CONVERGENCE PARAMETERS --------------------------%
%
CONV_RESIDUAL_MINVAL= -11
CONV_STARTITER= 0
INNER_ITER= 5000

% ------------------------- INPUT/OUTPUT INFORMATION --------------------------%
%
MESH_FORMAT= SU2
MESH_FILENAME= sector.su2
OUTPUT_WRT_FREQ= 9999
SCREEN_OUTPUT= ( INNER_ITER, RMS_RES, LINSOL_RESIDUAL, SURFACE_PRESSURE_DROP )
