%%%%%%%%%%%%%%%%%%%%%%%%%%%%%%%%%%%%%%%%%%%%%%%%%%%%%%%%%%%%%%%%%%%%%%%%%%%%%%%%
%                                                                              %
% SU2 configuration file                                                       %
% Case description: 2D, four cylynders rotating inside a supersonic flow       %
% Author: G. Gori                                                              %
% Institution: Politecnico di Milano					       %
% Date: Oct 5th, 2016                                                          %
% File Version 4.3.0 "cardinal"                                                %
%                                                                              %
%%%%%%%%%%%%%%%%%%%%%%%%%%%%%%%%%%%%%%%%%%%%%%%%%%%%%%%%%%%%%%%%%%%%%%%%%%%%%%%%
%
%
%
% ------------- DIRECT, ADJOINT, AND LINEARIZED PROBLEM DEFINITION ------------%
%
% Physical governing equations (EULER, NAVIER_STOKES)                         
PHYSICAL_PROBLEM= EULER
%
% Mathematical problem (DIRECT, ADJOINT, LINEARIZED)
MATH_PROBLEM= DIRECT
%
% Restart solution (NO, YES)
RESTART_SOL= NO
%
%
% ------------------------- UNSTEADY SIMULATION -------------------------------%
%
% Unsteady simulation (NO, TIME_STEPPING, DUAL_TIME_STEPPING-1ST_ORDER, 
%                      DUAL_TIME_STEPPING-2ND_ORDER)
UNSTEADY_SIMULATION= DUAL_TIME_STEPPING-2ND_ORDER
%
% Time Step for dual time stepping simulations (s)
UNST_TIMESTEP= 0.1
%
% Total Physical Time for dual time stepping simulations (s)
UNST_TIME= 50
%
% Number of internal iterations (dual time method)
UNST_INT_ITER= 200

UNST_RESTART_ITER = 2
%
% -------------------- COMPRESSIBLE FREE-STREAM DEFINITION --------------------%
%
% Mach number (non-dimensional, based on the free-stream values)
MACH_NUMBER= 2.5
%
% Angle of attack (degrees, only for compressible flows)
AOA= 0.0
%
% Free-stream pressure (101325.0 N/m^2 by default, only Euler flows)  
FREESTREAM_PRESSURE= 95750
%
% Free-stream temperature (273.15 K by default)
FREESTREAM_TEMPERATURE= 288.15
%
% Free-stream Turbulence Intensity
FREESTREAM_TURBULENCEINTENSITY = 0.1
%
% Free-stream Turbulent to Laminar viscosity ratio
FREESTREAM_TURB2LAMVISCRATIO = 100.0
%
% Free-stream option to choose if you want to use Density (DENSITY_FS) or Temperature (TEMPERATURE_FS) to initialize the solution
FREESTREAM_OPTION= TEMPERATURE_FS
%
%Init option to choose between Reynolds (default) or thermodynamics quantities for initializing the solution (REYNOLDS, TD_CONDITIONS)
INIT_OPTION= TD_CONDITIONS
%
% -------------------- BOUNDARY CONDITION DEFINITION --------------------------%
%
% Euler wall boundary marker(s) (NONE = no marker)
MARKER_EULER= ( wall )
%
% Riemann boundary marker(s)
% Format inlet:  ( marker, TOTAL_CONDITIONS_PT, Total Pressure, Total Temperature, Flow dir-x, Flow dir-y, Flow dir-z)
% Format outlet: ( marker, type, STATIC_PRESSURE, Static Pressure, 0.0, 0.0, 0.0, 0.0)
MARKER_RIEMANN= (inlet, STATIC_SUPERSONIC_INFLOW_PT, 95750, 288.15, 2.5, 0.0, 0.0, outlet, STATIC_PRESSURE, 9575.0, 0.0, 0.0, 0.0, 0.0)
%
% Zone interaction boundary definition
MARKER_ZONE_INTERFACE= ( domain_interface, external_interface, internal_interface, inner_interface)
MARKER_FLUID_INTERFACE= ( domain_interface, external_interface, internal_interface, inner_interface)

%KIND_INTERPOLATION= SLIDING_MESH
%
% Periodic boundary marker(s) (NONE = no marker)
% Format: ( periodic marker, donor marker, rot_cen_x, rot_cen_y, rot_cen_z, rot_angle_x-axis, rot_angle_y-axis, rot_angle_z-axis, translation_x, translation_y, translation_z)
MARKER_SYM= ( up, down )
%
%
% ----------------------- DYNAMIC MESH DEFINITION -----------------------------%
%
% Dynamic mesh simulation (NO, YES)
GRID_MOVEMENT= YES
%
% Type of dynamic mesh (NONE, ROTATING_FRAME)
GRID_MOVEMENT_KIND= RIGID_MOTION RIGID_MOTION RIGID_MOTION
%
% Motion mach number (non-dimensional). Used for intitializing a viscous flow
% with the Reynolds number and for computing force coeffs. with dynamic meshes.
MACH_MOTION= 0.35
%

MOTION_ORIGIN_X= 0.0 0.0 0.0
MOTION_ORIGIN_Y= 0.0 0.0 0.0
MOTION_ORIGIN_Z= 0.0 0.0 0.0

% Angular velocity vector (rad/s) about the motion origi. Example 1250 RPM -> 130.89969389957471 rad/s
ROTATION_RATE_X = 0.0 0.0 0.0
ROTATION_RATE_Y = 0.0 0.0 0.0
ROTATION_RATE_Z = 0.0 0.1 -0.1
%
%
%
% ------------- COMMON PARAMETERS DEFINING THE NUMERICAL METHOD ---------------%
%
% Numerical method for spatial gradients (GREEN_GAUSS, WEIGHTED_LEAST_SQUARES)
NUM_METHOD_GRAD= WEIGHTED_LEAST_SQUARES
%
% Courant-Friedrichs-Lewy condition of the finest grid
CFL_NUMBER= 5.0
%
% Adaptive CFL number (NO, YES)
CFL_ADAPT= NO
%
% Parameters of the adaptive CFL number (factor down, factor up, CFL min value, CFL max value )
CFL_ADAPT_PARAM= ( 0.3, 0.5, 1.0, 1000.0)
%
%
% ------------------------ LINEAR SOLVER DEFINITION ---------------------------%
%
% Linear solver or smoother for implicit formulations (BCGSTAB, FGMRES, SMOOTHER)
LINEAR_SOLVER= FGMRES
%
% Preconditioner of the Krylov linear solver (ILU, LU_SGS, LINELET, JACOBI)
LINEAR_SOLVER_PREC= LU_SGS
%
% Min error of the linear solver for the implicit formulation
LINEAR_SOLVER_ERROR= 1E-4
%
% Max number of iterations of the linear solver for the implicit formulation
LINEAR_SOLVER_ITER= 5
%
%
% -------------------------- MULTIGRID PARAMETERS -----------------------------%
%
% Multi-Grid Levels (0 = no multi-grid)
MGLEVEL= 0
%
% Multigrid pre-smoothing level
MG_PRE_SMOOTH= ( 1, 2, 3, 3 )
%
% Multigrid post-smoothing level
MG_POST_SMOOTH= ( 0, 0, 0, 0 )
%
% Jacobi implicit smoothing of the correction
MG_CORRECTION_SMOOTH= ( 0, 0, 0, 0 )
%
% Damping factor for the residual restriction
MG_DAMP_RESTRICTION= 0.75
%
% Damping factor for the correction prolongation
MG_DAMP_PROLONGATION= 0.75
%
%
% ----------------------- SLOPE LIMITER DEFINITION ----------------------------%
%
% Coefficient for the limiter
VENKAT_LIMITER_COEFF= 0.05
%
% Freeze the value of the limiter after a number of iterations
LIMITER_ITER= 999999
%
%
% -------------------- FLOW NUMERICAL METHOD DEFINITION -----------------------%
%
% Convective numerical method (JST, ROE, AUSM, HLLC)
CONV_NUM_METHOD_FLOW= ROE
%
% Monotonic Upwind Scheme for Conservation Laws (TVD) in the flow equations.
%           Required for 2nd order upwind schemes (NO, YES)
MUSCL_FLOW= NO
%
% Entropy fix coefficient (0.0 implies no entropy fixing, 1.0 implies scalar artificial dissipation, 0.001 default)
ENTROPY_FIX_COEFF= 0.001
%
% 2nd and 4th order artificial dissipation coefficients
JST_SENSOR_COEFF= ( 0.5, 0.02 )
%
% Slope limiter (VENKATAKRISHNAN, BARTH_JESPERSEN, VAN_ALBADA_EDGE)
SLOPE_LIMITER_FLOW= VENKATAKRISHNAN
%
% Time discretization (RUNGE-KUTTA_EXPLICIT, EULER_IMPLICIT, EULER_EXPLICIT)
TIME_DISCRE_FLOW= EULER_IMPLICIT
%
% Relaxation coefficient
RELAXATION_FACTOR_FLOW= 1.0
%
%
% --------------------------- CONVERGENCE PARAMETERS --------------------------%
%
% Number of total iterations
EXT_ITER= 32000
%
% Convergence criteria (CAUCHY, RESIDUAL)
CONV_CRITERIA= RESIDUAL
%
% Flow functional for the Residual criteria (RHO, RHO_ENERGY)
RESIDUAL_FUNC_FLOW= RHO_ENERGY
%
% Residual reduction (order of magnitude with respect to the initial value)
RESIDUAL_REDUCTION= 6
%
% Min value of the residual (log10 of the residual)
RESIDUAL_MINVAL= -16
%
% Start convergence criteria at iteration number
STARTCONV_ITER= 10
%
% Number of elements to apply the criteria
CAUCHY_ELEMS= 100
%
% Epsilon to control the series convergence
CAUCHY_EPS= 1E-6
%
% Direct function to apply the convergence criteria (LIFT, DRAG, NEARFIELD_PRESS)
CAUCHY_FUNC_FLOW= DRAG
%
%
% ------------------------- INPUT/OUTPUT INFORMATION --------------------------%
%
% Mesh input file
MESH_FILENAME= rotating_cylinders.su2
%
% Mesh input file format (SU2, CGNS)
MESH_FORMAT= SU2
%
% Mesh output file
MESH_OUT_FILENAME= su2mesh_per.su2
%
% Restart flow input file
SOLUTION_FLOW_FILENAME= restart_flow.dat
%
% Output file format (PARAVIEW, TECPLOT, STL)
OUTPUT_FORMAT= PARAVIEW	
%
% Output file convergence history (w/o extension) 
CONV_FILENAME= history
%
% Output file restart flow
RESTART_FLOW_FILENAME= restart_flow.dat
%
% Output file flow (w/o extension) variables
VOLUME_FLOW_FILENAME= flow
%
% Output file surface flow coefficient (w/o extension)
SURFACE_FLOW_FILENAME= surface_flow
%
% Writing solution file frequency
WRT_SOL_FREQ= 50
%
% Writing convergence history frequency
WRT_CON_FREQ= 1
