/*!
 * \file CFVMFlowSolverBase.inl
 * \brief Base class template for all FVM flow solvers.
 * \version 8.0.0 "Harrier"
 *
 * SU2 Project Website: https://su2code.github.io
 *
 * The SU2 Project is maintained by the SU2 Foundation
 * (http://su2foundation.org)
 *
 * Copyright 2012-2023, SU2 Contributors (cf. AUTHORS.md)
 *
 * SU2 is free software; you can redistribute it and/or
 * modify it under the terms of the GNU Lesser General Public
 * License as published by the Free Software Foundation; either
 * version 2.1 of the License, or (at your option) any later version.
 *
 * SU2 is distributed in the hope that it will be useful,
 * but WITHOUT ANY WARRANTY; without even the implied warranty of
 * MERCHANTABILITY or FITNESS FOR A PARTICULAR PURPOSE. See the GNU
 * Lesser General Public License for more details.
 *
 * You should have received a copy of the GNU Lesser General Public
 * License along with SU2. If not, see <http://www.gnu.org/licenses/>.
 */

#pragma once

#include "../gradients/computeGradientsGreenGauss.hpp"
#include "../gradients/computeGradientsLeastSquares.hpp"
#include "../limiters/computeLimiters.hpp"
#include "../numerics_simd/CNumericsSIMD.hpp"
#include "CFVMFlowSolverBase.hpp"

template <class V, ENUM_REGIME R>
void CFVMFlowSolverBase<V, R>::AeroCoeffsArray::allocate(int size) {
  _size = size;
  CD = new su2double[size];
  CL = new su2double[size];
  CSF = new su2double[size];
  CEff = new su2double[size];
  CFx = new su2double[size];
  CFy = new su2double[size];
  CFz = new su2double[size];
  CMx = new su2double[size];
  CMy = new su2double[size];
  CMz = new su2double[size];
  CoPx = new su2double[size];
  CoPy = new su2double[size];
  CoPz = new su2double[size];
  CT = new su2double[size];
  CQ = new su2double[size];
  CMerit = new su2double[size];
  setZero();
}

template <class V, ENUM_REGIME R>
CFVMFlowSolverBase<V, R>::AeroCoeffsArray::~AeroCoeffsArray() {
  delete[] CD;
  delete[] CL;
  delete[] CSF;
  delete[] CEff;
  delete[] CFx;
  delete[] CFy;
  delete[] CFz;
  delete[] CMx;
  delete[] CMy;
  delete[] CMz;
  delete[] CoPx;
  delete[] CoPy;
  delete[] CoPz;
  delete[] CT;
  delete[] CQ;
  delete[] CMerit;
}

template <class V, ENUM_REGIME R>
void CFVMFlowSolverBase<V, R>::AeroCoeffsArray::setZero(int i) {
  CD[i] = CL[i] = CSF[i] = CEff[i] = 0.0;
  CFx[i] = CFy[i] = CFz[i] = CMx[i] = 0.0;
  CMy[i] = CMz[i] = CoPx[i] = CoPy[i] = 0.0;
  CoPz[i] = CT[i] = CQ[i] = CMerit[i] = 0.0;
}

template <class V, ENUM_REGIME R>
void CFVMFlowSolverBase<V, R>::Allocate(const CConfig& config) {
  /*--- Define some auxiliar vector related with the residual ---*/

  Residual_RMS.resize(nVar,0.0);
  Residual_Max.resize(nVar,0.0);
  Point_Max.resize(nVar,0);
  Point_Max_Coord.resize(nVar,nDim) = su2double(0.0);

  /*--- Define some auxiliar vector related with the undivided lapalacian computation ---*/

  if ((config.GetKind_ConvNumScheme_Flow() == SPACE_CENTERED) && (MGLevel == MESH_0)) {
    iPoint_UndLapl.resize(nPointDomain);
    jPoint_UndLapl.resize(nPointDomain);
  }

  /*--- Initialize the solution and right hand side vectors for storing
   the residuals and updating the solution (always needed even for
   explicit schemes). ---*/

  LinSysSol.Initialize(nPoint, nPointDomain, nVar, 0.0);
  LinSysRes.Initialize(nPoint, nPointDomain, nVar, 0.0);

  /*--- LinSysSol will always be init to 0. ---*/
  System.SetxIsZero(true);

  /*--- Store the value of the characteristic primitive variables at the boundaries ---*/

  AllocVectorOfMatrices(nVertex, nPrimVar, CharacPrimVar);

  /*--- Store the value of the Total Pressure at the inlet BC ---*/

  AllocVectorOfVectors(nVertex, Inlet_Ttotal);

  /*--- Store the value of the Total Temperature at the inlet BC ---*/

  AllocVectorOfVectors(nVertex, Inlet_Ptotal);

  /*--- Store the value of the Flow direction at the inlet BC ---*/

  AllocVectorOfMatrices(nVertex, nDim, Inlet_FlowDir);

  /*--- Force definition and coefficient arrays for all of the markers ---*/

  AllocVectorOfVectors(nVertex, CPressure);
  AllocVectorOfVectors(nVertex, CPressureTarget);

  /*--- Non dimensional aerodynamic coefficients ---*/

  InvCoeff.allocate(nMarker);
  MntCoeff.allocate(nMarker);
  ViscCoeff.allocate(nMarker);
  SurfaceInvCoeff.allocate(config.GetnMarker_Monitoring());
  SurfaceMntCoeff.allocate(config.GetnMarker_Monitoring());
  SurfaceViscCoeff.allocate(config.GetnMarker_Monitoring());
  SurfaceCoeff.allocate(config.GetnMarker_Monitoring());

  /*--- Heat flux coefficients. ---*/

  HF_Visc.resize(nMarker,0.0);
  MaxHF_Visc.resize(nMarker,0.0);

  Surface_HF_Visc.resize(config.GetnMarker_Monitoring());
  Surface_MaxHF_Visc.resize(config.GetnMarker_Monitoring());

  /*--- Supersonic coefficients ---*/

  CNearFieldOF_Inv.resize(nMarker,0.0);

  /*--- Initializate quantities for SlidingMesh Interface ---*/

  SlidingState.resize(nMarker);
  SlidingStateNodes.resize(nMarker);

  for (unsigned long iMarker = 0; iMarker < nMarker; iMarker++) {
    if (config.GetMarker_All_KindBC(iMarker) == FLUID_INTERFACE) {
      SlidingState[iMarker].resize(nVertex[iMarker], nPrimVar+1) = nullptr;
      SlidingStateNodes[iMarker].resize(nVertex[iMarker],0);
    }
  }

  /*--- Heat flux in all the markers ---*/

  AllocVectorOfVectors(nVertex, HeatFlux);
  AllocVectorOfVectors(nVertex, HeatFluxTarget);

  /*--- Y plus in all the markers ---*/

  AllocVectorOfVectors(nVertex, YPlus);

  /*--- U Tau in all the markers ---*/

  AllocVectorOfVectors(nVertex, UTau);

  /*--- wall eddy viscosity in all the markers ---*/

  AllocVectorOfVectors(nVertex, EddyViscWall);

  /*--- Skin friction in all the markers ---*/

  AllocVectorOfMatrices(nVertex, nDim, CSkinFriction);

  /*--- Wall Shear Stress in all the markers ---*/

  AllocVectorOfVectors(nVertex, WallShearStress);

  /*--- Store the values of the temperature and the heat flux density at the boundaries,
   used for coupling with a solid donor cell ---*/
  constexpr auto nHeatConjugateVar = 4u;
  AllocVectorOfMatrices(nVertex, nHeatConjugateVar, HeatConjugateVar, config.GetTemperature_FreeStreamND());

  if (MGLevel == MESH_0) {
    auto nSolidVertex = nVertex;
    for (unsigned long iMarker = 0; iMarker < nMarker; iMarker++)
      if (!config.GetSolid_Wall(iMarker))
        nSolidVertex[iMarker] = 0;

    AllocVectorOfMatrices(nSolidVertex, nDim, VertexTraction);

    if (config.GetDiscrete_Adjoint()) AllocVectorOfMatrices(nSolidVertex, nDim, VertexTractionAdjoint);
  }

  /*--- Initialize the BGS residuals in FSI problems. ---*/
  if (config.GetMultizone_Residual()) {
    Residual_BGS.resize(nVar,1.0);
    Residual_Max_BGS.resize(nVar,1.0);
    Point_Max_BGS.resize(nVar,0);
    Point_Max_Coord_BGS.resize(nVar,nDim) = su2double(0.0);
  }
}

template <class V, ENUM_REGIME R>
void CFVMFlowSolverBase<V, R>::AllocateTerribleLegacyTemporaryVariables() {
  /*--- Define some auxiliary vectors related to the residual ---*/

  Residual = new su2double[nVar]();
  Res_Conv = new su2double[nVar]();
  Res_Visc = new su2double[nVar]();
  Res_Sour = new su2double[nVar]();

  /*--- Define some auxiliary vectors related to the solution ---*/

  Solution = new su2double[nVar]();
  Solution_i = new su2double[nVar]();
  Solution_j = new su2double[nVar]();

  /*--- Define some auxiliary vectors related to the geometry ---*/

  Vector = new su2double[nDim]();
  Vector_i = new su2double[nDim]();
  Vector_j = new su2double[nDim]();

  /*--- Jacobian temporaries. ---*/

  Jacobian_i = new su2double*[nVar];
  Jacobian_j = new su2double*[nVar];
  for (auto iVar = 0u; iVar < nVar; iVar++) {
    Jacobian_i[iVar] = new su2double[nVar];
    Jacobian_j[iVar] = new su2double[nVar];
  }
}

template <class V, ENUM_REGIME R>
void CFVMFlowSolverBase<V, R>::CommunicateInitialState(CGeometry* geometry, const CConfig* config) {
  /*--- Define solver parameters needed for execution of destructor ---*/

  space_centered = (config->GetKind_ConvNumScheme_Flow() == SPACE_CENTERED);
  euler_implicit = (config->GetKind_TimeIntScheme_Flow() == EULER_IMPLICIT);
  least_squares = (config->GetKind_Gradient_Method() == WEIGHTED_LEAST_SQUARES);

  /*--- Communicate and store volume and the number of neighbors for
   any dual CVs that lie on on periodic markers. ---*/

  for (unsigned short iPeriodic = 1; iPeriodic <= config->GetnMarker_Periodic() / 2; iPeriodic++) {
    InitiatePeriodicComms(geometry, config, iPeriodic, PERIODIC_VOLUME);
    CompletePeriodicComms(geometry, config, iPeriodic, PERIODIC_VOLUME);
    InitiatePeriodicComms(geometry, config, iPeriodic, PERIODIC_NEIGHBORS);
    CompletePeriodicComms(geometry, config, iPeriodic, PERIODIC_NEIGHBORS);
  }
  SetImplicitPeriodic(euler_implicit);
  if (MGLevel == MESH_0) SetRotatePeriodic(true);

  /*--- Perform the MPI communication of the solution ---*/

  InitiateComms(geometry, config, SOLUTION);
  CompleteComms(geometry, config, SOLUTION);

  /*--- Store the initial CFL number for all grid points. ---*/

  const auto CFL = config->GetCFL(MGLevel);
  for (auto iPoint = 0ul; iPoint < nPoint; iPoint++) {
    nodes->SetLocalCFL(iPoint, CFL);
  }
  Min_CFL_Local = CFL;
  Max_CFL_Local = CFL;
  Avg_CFL_Local = CFL;
}

template <class V, ENUM_REGIME R>
void CFVMFlowSolverBase<V, R>::HybridParallelInitialization(const CConfig& config, CGeometry& geometry) {
#ifdef HAVE_OMP
  /*--- Get the edge coloring. If the expected parallel efficiency becomes too low setup the
   *    reducer strategy. Where one loop is performed over edges followed by a point loop to
   *    sum the fluxes for each cell and set the diagonal of the system matrix. ---*/

  su2double parallelEff = 1.0;
  const auto& coloring = geometry.GetEdgeColoring(&parallelEff);

  /*--- The decision to use the strategy is local to each rank. ---*/
  ReducerStrategy = parallelEff < COLORING_EFF_THRESH;

  /*--- When using the reducer force a single color to reduce the color loop overhead. ---*/
  if (ReducerStrategy && (coloring.getOuterSize() > 1)) geometry.SetNaturalEdgeColoring();

  if (!coloring.empty()) {
    /*--- If the reducer strategy is used we are not constrained by group
     *    size as we have no other edge loops in the Euler/NS solvers. ---*/
    auto groupSize = ReducerStrategy ? 1ul : geometry.GetEdgeColorGroupSize();
    auto nColor = coloring.getOuterSize();
    EdgeColoring.reserve(nColor);

    for (auto iColor = 0ul; iColor < nColor; ++iColor)
      EdgeColoring.emplace_back(coloring.innerIdx(iColor), coloring.getNumNonZeros(iColor), groupSize);
  }

  /*--- If the reducer strategy is not being forced (by EDGE_COLORING_GROUP_SIZE=0) print some messages. ---*/
  if (config.GetEdgeColoringGroupSize() != 1 << 30) {
    su2double minEff = 1.0;
    SU2_MPI::Reduce(&parallelEff, &minEff, 1, MPI_DOUBLE, MPI_MIN, MASTER_NODE, SU2_MPI::GetComm());

    int tmp = ReducerStrategy, numRanksUsingReducer = 0;
    SU2_MPI::Reduce(&tmp, &numRanksUsingReducer, 1, MPI_INT, MPI_SUM, MASTER_NODE, SU2_MPI::GetComm());

    if (minEff < COLORING_EFF_THRESH) {
      cout << "WARNING: On " << numRanksUsingReducer << " MPI ranks the coloring efficiency was less than "
           << COLORING_EFF_THRESH << " (min value was " << minEff << ").\n"
           << "         Those ranks will now use a fallback strategy, better performance may be possible\n"
           << "         with a different value of config option EDGE_COLORING_GROUP_SIZE (default 512)."
#ifdef HAVE_OPDI
           << "\n         The memory usage of the discrete adjoint solver is higher when using the fallback."
#endif
           << endl;
    }
  }

  if (ReducerStrategy) EdgeFluxes.Initialize(geometry.GetnEdge(), geometry.GetnEdge(), nVar, nullptr);

  omp_chunk_size = computeStaticChunkSize(nPoint, omp_get_max_threads(), OMP_MAX_SIZE);
#else
  EdgeColoring[0] = DummyGridColor<>(geometry.GetnEdge());
#endif
}

template <class V, ENUM_REGIME R>
CFVMFlowSolverBase<V, R>::~CFVMFlowSolverBase() {

  for (auto& mat : SlidingState) {
    for (auto ptr : mat) delete [] ptr;
  }

  delete nodes;
  delete edgeNumerics;
}

template <class V, ENUM_REGIME R>
void CFVMFlowSolverBase<V, R>::SetPrimitive_Gradient_GG(CGeometry* geometry, const CConfig* config,
                                                        bool reconstruction) {
  const auto& primitives = nodes->GetPrimitive();
  auto& gradient = reconstruction ? nodes->GetGradient_Reconstruction() : nodes->GetGradient_Primitive();
  const auto comm = reconstruction? PRIMITIVE_GRAD_REC : PRIMITIVE_GRADIENT;
  const auto commPer = reconstruction? PERIODIC_PRIM_GG_R : PERIODIC_PRIM_GG;

  computeGradientsGreenGauss(this, comm, commPer, *geometry, *config, primitives, 0, nPrimVarGrad, gradient);
}

template <class V, ENUM_REGIME R>
void CFVMFlowSolverBase<V, R>::SetPrimitive_Gradient_LS(CGeometry* geometry, const CConfig* config,
                                                        bool reconstruction) {
  /*--- Set a flag for unweighted or weighted least-squares. ---*/
  bool weighted;
  PERIODIC_QUANTITIES commPer;

  if (reconstruction) {
    weighted = (config->GetKind_Gradient_Method_Recon() == WEIGHTED_LEAST_SQUARES);
    commPer = weighted? PERIODIC_PRIM_LS_R : PERIODIC_PRIM_ULS_R;
  }
  else {
    weighted = (config->GetKind_Gradient_Method() == WEIGHTED_LEAST_SQUARES);
    commPer = weighted? PERIODIC_PRIM_LS : PERIODIC_PRIM_ULS;
  }

  const auto& primitives = nodes->GetPrimitive();
  auto& rmatrix = nodes->GetRmatrix();
  auto& gradient = reconstruction ? nodes->GetGradient_Reconstruction() : nodes->GetGradient_Primitive();
  const auto comm = reconstruction? PRIMITIVE_GRAD_REC : PRIMITIVE_GRADIENT;

  computeGradientsLeastSquares(this, comm, commPer, *geometry, *config, weighted,
                               primitives, 0, nPrimVarGrad, gradient, rmatrix);
}

template <class V, ENUM_REGIME R>
void CFVMFlowSolverBase<V, R>::SetPrimitive_Limiter(CGeometry* geometry, const CConfig* config) {
  const auto kindLimiter = config->GetKind_SlopeLimit_Flow();
  const auto& primitives = nodes->GetPrimitive();
  const auto& gradient = nodes->GetGradient_Reconstruction();
  auto& primMin = nodes->GetSolution_Min();
  auto& primMax = nodes->GetSolution_Max();
  auto& limiter = nodes->GetLimiter_Primitive();

  computeLimiters(kindLimiter, this, PRIMITIVE_LIMITER, PERIODIC_LIM_PRIM_1, PERIODIC_LIM_PRIM_2, *geometry, *config, 0,
                  nPrimVarGrad, primitives, gradient, primMin, primMax, limiter);
}

template <class V, ENUM_REGIME R>
void CFVMFlowSolverBase<V, R>::Viscous_Residual_impl(unsigned long iEdge, CGeometry *geometry, CSolver **solver_container,
                                                     CNumerics *numerics, CConfig *config) {

  const bool implicit  = (config->GetKind_TimeIntScheme() == EULER_IMPLICIT);
  const bool tkeNeeded = (config->GetKind_Turb_Model() == TURB_MODEL::SST);

  CVariable* turbNodes = nullptr;
  if (tkeNeeded) turbNodes = solver_container[TURB_SOL]->GetNodes();

  /*--- Points, coordinates and normal vector in edge ---*/

  auto iPoint = geometry->edges->GetNode(iEdge,0);
  auto jPoint = geometry->edges->GetNode(iEdge,1);

  numerics->SetCoord(geometry->nodes->GetCoord(iPoint),
                     geometry->nodes->GetCoord(jPoint));

  numerics->SetNormal(geometry->edges->GetNormal(iEdge));

  /*--- Primitive and secondary variables. ---*/

  numerics->SetPrimitive(nodes->GetPrimitive(iPoint),
                         nodes->GetPrimitive(jPoint));

  numerics->SetSecondary(nodes->GetSecondary(iPoint),
                         nodes->GetSecondary(jPoint));

  /*--- Gradients. ---*/

  numerics->SetPrimVarGradient(nodes->GetGradient_Primitive(iPoint),
                               nodes->GetGradient_Primitive(jPoint));

  /*--- Turbulent kinetic energy. ---*/

  if (tkeNeeded)
    numerics->SetTurbKineticEnergy(turbNodes->GetSolution(iPoint,0),
                                   turbNodes->GetSolution(jPoint,0));

  /*--- Wall shear stress values (wall functions) ---*/

  numerics->SetTau_Wall(nodes->GetTau_Wall(iPoint),
                        nodes->GetTau_Wall(jPoint));

  /*--- Compute and update residual ---*/

  auto residual = numerics->ComputeResidual(config);

  if (ReducerStrategy) {
    EdgeFluxes.SubtractBlock(iEdge, residual);
    if (implicit)
      Jacobian.UpdateBlocksSub(iEdge, residual.jacobian_i, residual.jacobian_j);
  }
  else {
    LinSysRes.SubtractBlock(iPoint, residual);
    LinSysRes.AddBlock(jPoint, residual);

    if (implicit)
      Jacobian.UpdateBlocksSub(iEdge, iPoint, jPoint, residual.jacobian_i, residual.jacobian_j);
  }

}

template <class V, ENUM_REGIME R>
void CFVMFlowSolverBase<V, R>::ComputeVerificationError(CGeometry* geometry, CConfig* config) {

  /*--- The errors only need to be computed on the finest grid. ---*/
  if (MGLevel != MESH_0) return;

  /*--- If this is a verification case, we can compute the global
   error metrics by using the difference between the local error
   and the known solution at each DOF. This is then collected into
   RMS (L2) and maximum (Linf) global error norms. From these
   global measures, one can compute the order of accuracy. ---*/

  bool write_heads =
      ((((config->GetInnerIter() % (config->GetScreen_Wrt_Freq(2) * 40)) == 0) && (config->GetInnerIter() != 0)) ||
       (config->GetInnerIter() == 1));
  if (!write_heads) return;

  BEGIN_SU2_OMP_SAFE_GLOBAL_ACCESS {

  /*--- Check if there actually is an exact solution for this
        verification case, if computed at all. ---*/
  if (VerificationSolution && VerificationSolution->ExactSolutionKnown()) {
    /*--- Get the physical time if necessary. ---*/
    su2double time = 0.0;
    if (config->GetTime_Marching() != TIME_MARCHING::STEADY) time = config->GetPhysicalTime();

    /*--- Reset the global error measures to zero. ---*/
    for (unsigned short iVar = 0; iVar < nVar; iVar++) {
      VerificationSolution->SetError_RMS(iVar, 0.0);
      VerificationSolution->SetError_Max(iVar, 0.0, 0);
    }

    /*--- Loop over all owned points. ---*/
    for (unsigned long iPoint = 0; iPoint < nPointDomain; iPoint++) {
      /* Set the pointers to the coordinates and solution of this DOF. */
      const su2double* coor = geometry->nodes->GetCoord(iPoint);
      su2double* solDOF = nodes->GetSolution(iPoint);

      /* Get local error from the verification solution class. */
      vector<su2double> error(nVar, 0.0);
      VerificationSolution->GetLocalError(coor, time, solDOF, error.data());

      /* Increment the global error measures */
      for (unsigned short iVar = 0; iVar < nVar; iVar++) {
        VerificationSolution->AddError_RMS(iVar, error[iVar] * error[iVar]);
        VerificationSolution->AddError_Max(iVar, fabs(error[iVar]), geometry->nodes->GetGlobalIndex(iPoint),
                                           geometry->nodes->GetCoord(iPoint));
      }
    }

    /* Finalize the calculation of the global error measures. */
    VerificationSolution->SetVerificationError(geometry->GetGlobal_nPointDomain(), config);

    /*--- Screen output of the error metrics. This can be improved
     once the new output classes are in place. ---*/

    PrintVerificationError(config);
  }

  }
  END_SU2_OMP_SAFE_GLOBAL_ACCESS
}

template <class V, ENUM_REGIME R>
void CFVMFlowSolverBase<V, R>::ComputeUnderRelaxationFactor(const CConfig* config) {
  /* Loop over the solution update given by relaxing the linear
   system for this nonlinear iteration. */

  const su2double allowableRatio = 0.2;

  SU2_OMP_FOR_STAT(omp_chunk_size)
  for (unsigned long iPoint = 0; iPoint < nPointDomain; iPoint++) {
    su2double localUnderRelaxation = 1.0;

    for (unsigned short iVar = 0; iVar < nVar; iVar++) {
      /* We impose a limit on the maximum percentage that the
       density and energy can change over a nonlinear iteration. */

      if ((iVar == 0) || (iVar == nVar - 1)) {
        const unsigned long index = iPoint * nVar + iVar;
        su2double ratio = fabs(LinSysSol[index]) / (fabs(nodes->GetSolution(iPoint, iVar)) + EPS);
        if (ratio > allowableRatio) {
          localUnderRelaxation = min(allowableRatio / ratio, localUnderRelaxation);
        }
      }
    }

    /* Threshold the relaxation factor in the event that there is
     a very small value. This helps avoid catastrophic crashes due
     to non-realizable states by canceling the update. */

    if (localUnderRelaxation < 1e-10) localUnderRelaxation = 0.0;

    /* Store the under-relaxation factor for this point. */

    nodes->SetUnderRelaxation(iPoint, localUnderRelaxation);
  }
  END_SU2_OMP_FOR
}

template <class V, ENUM_REGIME R>
void CFVMFlowSolverBase<V, R>::ImplicitEuler_Iteration(CGeometry *geometry, CSolver**, CConfig *config) {

  PrepareImplicitIteration(geometry, nullptr, config);

  /*--- Solve or smooth the linear system. ---*/

  SU2_OMP_FOR_(schedule(static,OMP_MIN_SIZE) SU2_NOWAIT)
  for (unsigned long iPoint = nPointDomain; iPoint < nPoint; iPoint++) {
    LinSysRes.SetBlock_Zero(iPoint);
    LinSysSol.SetBlock_Zero(iPoint);
  }
  END_SU2_OMP_FOR

  auto iter = System.Solve(Jacobian, LinSysRes, LinSysSol, geometry, config);

  BEGIN_SU2_OMP_SAFE_GLOBAL_ACCESS {
    SetIterLinSolver(iter);
    SetResLinSolver(System.GetResidual());
  }
  END_SU2_OMP_SAFE_GLOBAL_ACCESS

  CompleteImplicitIteration(geometry, nullptr, config);
}

template <class V, ENUM_REGIME R>
void CFVMFlowSolverBase<V, R>::ComputeVorticityAndStrainMag(const CConfig& config, const CGeometry *geometry, unsigned short iMesh) {

  auto& StrainMag = nodes->GetStrainMag();

  ompMasterAssignBarrier(StrainMag_Max,0.0, Omega_Max,0.0);

  su2double strainMax = 0.0, omegaMax = 0.0;

  SU2_OMP_FOR_STAT(omp_chunk_size)
  for (unsigned long iPoint = 0; iPoint < nPoint; ++iPoint) {

    const auto VelocityGradient = nodes->GetVelocityGradient(iPoint);
    auto Vorticity = nodes->GetVorticity(iPoint);

    /*--- Vorticity ---*/

    Vorticity[0] = 0.0;
    Vorticity[1] = 0.0;
    Vorticity[2] = VelocityGradient(1,0)-VelocityGradient(0,1);

    if (nDim == 3) {
      Vorticity[0] = VelocityGradient(2,1)-VelocityGradient(1,2);
      Vorticity[1] = -(VelocityGradient(2,0)-VelocityGradient(0,2));
    }

    /*--- Strain Magnitude ---*/

    const su2double vy = nodes->GetVelocity(iPoint, 1);
    const su2double y = geometry->nodes->GetCoord(iPoint, 1);
    AD::StartPreacc();
    AD::SetPreaccIn(VelocityGradient, nDim, nDim);
    AD::SetPreaccIn(vy, y);

    StrainMag(iPoint) = 0.0;

    /*--- Add diagonal part ---*/

    for (unsigned long iDim = 0; iDim < nDim; iDim++) {
      StrainMag(iPoint) += pow(VelocityGradient(iDim, iDim), 2);
    }
    if (config.GetAxisymmetric() && y > EPS) {
      StrainMag(iPoint) += pow(vy / y, 2);
    }

    /*--- Add off diagonals ---*/

    StrainMag(iPoint) += 2.0*pow(0.5*(VelocityGradient(0,1) + VelocityGradient(1,0)), 2);

    if (nDim == 3) {
      StrainMag(iPoint) += 2.0*pow(0.5*(VelocityGradient(0,2) + VelocityGradient(2,0)), 2);
      StrainMag(iPoint) += 2.0*pow(0.5*(VelocityGradient(1,2) + VelocityGradient(2,1)), 2);
    }

    StrainMag(iPoint) = sqrt(2.0*StrainMag(iPoint));
    AD::SetPreaccOut(StrainMag(iPoint));

    /*--- Max is not differentiable, so we not register them for preacc. ---*/
    strainMax = max(strainMax, StrainMag(iPoint));
    omegaMax = max(omegaMax, GeometryToolbox::Norm(3, Vorticity));

    AD::EndPreacc();
  }
  END_SU2_OMP_FOR

  if ((iMesh == MESH_0) && (config.GetComm_Level() == COMM_FULL)) {
    SU2_OMP_CRITICAL {
      StrainMag_Max = max(StrainMag_Max, strainMax);
      Omega_Max = max(Omega_Max, omegaMax);
    }
    END_SU2_OMP_CRITICAL

    BEGIN_SU2_OMP_SAFE_GLOBAL_ACCESS
    {
      su2double MyOmega_Max = Omega_Max;
      su2double MyStrainMag_Max = StrainMag_Max;

      SU2_MPI::Allreduce(&MyStrainMag_Max, &StrainMag_Max, 1, MPI_DOUBLE, MPI_MAX, SU2_MPI::GetComm());
      SU2_MPI::Allreduce(&MyOmega_Max, &Omega_Max, 1, MPI_DOUBLE, MPI_MAX, SU2_MPI::GetComm());
    }
    END_SU2_OMP_SAFE_GLOBAL_ACCESS
  }

}

template <class V, ENUM_REGIME R>
void CFVMFlowSolverBase<V, R>::SetInletAtVertex(const su2double* val_inlet, unsigned short iMarker,
                                                unsigned long iVertex) {
  /*--- Alias positions within inlet file for readability ---*/

  unsigned short T_position = nDim;
  unsigned short P_position = nDim + 1;
  unsigned short FlowDir_position = nDim + 2;

  /*--- Note that it is not necessary anymore to use normalized normals for the inlet velocity ---*/


  /*--- Store the values in our inlet data structures. ---*/

  Inlet_Ttotal[iMarker][iVertex] = val_inlet[T_position];
  Inlet_Ptotal[iMarker][iVertex] = val_inlet[P_position];
  for (unsigned short iDim = 0; iDim < nDim; iDim++) {
    Inlet_FlowDir[iMarker][iVertex][iDim] = val_inlet[FlowDir_position + iDim];
  }
}

template <class V, ENUM_REGIME R>
su2double CFVMFlowSolverBase<V, R>::GetInletAtVertex(su2double* val_inlet, unsigned long val_inlet_point,
                                                     unsigned short val_kind_marker, string val_marker,
                                                     const CGeometry* geometry, const CConfig* config) const {
  /*--- Local variables ---*/

  unsigned short iMarker, iDim;
  unsigned long iPoint, iVertex;
  su2double Area = 0.0;
  su2double Normal[3] = {0.0, 0.0, 0.0};

  /*--- Alias positions within inlet file for readability ---*/

  unsigned short T_position = nDim;
  unsigned short P_position = nDim + 1;
  unsigned short FlowDir_position = nDim + 2;

  if (val_kind_marker == INLET_FLOW) {
    for (iMarker = 0; iMarker < config->GetnMarker_All(); iMarker++) {
      if ((config->GetMarker_All_KindBC(iMarker) == INLET_FLOW) &&
          (config->GetMarker_All_TagBound(iMarker) == val_marker)) {
        for (iVertex = 0; iVertex < nVertex[iMarker]; iVertex++) {
          iPoint = geometry->vertex[iMarker][iVertex]->GetNode();

          if (iPoint == val_inlet_point) {
            /*-- Compute boundary face area for this vertex. ---*/

            geometry->vertex[iMarker][iVertex]->GetNormal(Normal);
            Area = GeometryToolbox::Norm(nDim, Normal);

            /*--- Access and store the inlet variables for this vertex. ---*/

            val_inlet[T_position] = Inlet_Ttotal[iMarker][iVertex];
            val_inlet[P_position] = Inlet_Ptotal[iMarker][iVertex];
            for (iDim = 0; iDim < nDim; iDim++) {
              val_inlet[FlowDir_position + iDim] = Inlet_FlowDir[iMarker][iVertex][iDim];
            }

            /*--- Exit once we find the point. ---*/

            return Area;
          }
        }
      }
    }
  }

  /*--- If we don't find a match, then the child point is not on the
   current inlet boundary marker. Return zero area so this point does
   not contribute to the restriction operator and continue. ---*/

  return Area;
}

template <class V, ENUM_REGIME R>
void CFVMFlowSolverBase<V, R>::SetUniformInlet(const CConfig* config, unsigned short iMarker) {
  if (config->GetMarker_All_KindBC(iMarker) == INLET_FLOW) {
    string Marker_Tag = config->GetMarker_All_TagBound(iMarker);
    su2double p_total = config->GetInlet_Ptotal(Marker_Tag);
    su2double t_total = config->GetInlet_Ttotal(Marker_Tag);
    auto flow_dir = config->GetInlet_FlowDir(Marker_Tag);

    for (unsigned long iVertex = 0; iVertex < nVertex[iMarker]; iVertex++) {
      Inlet_Ttotal[iMarker][iVertex] = t_total;
      Inlet_Ptotal[iMarker][iVertex] = p_total;
      for (unsigned short iDim = 0; iDim < nDim; iDim++) Inlet_FlowDir[iMarker][iVertex][iDim] = flow_dir[iDim];
    }

  } else {
    /*--- For now, non-inlets just get set to zero. In the future, we
     can do more customization for other boundary types here. ---*/
    for (unsigned long iVertex = 0; iVertex < nVertex[iMarker]; iVertex++) {
      Inlet_Ttotal[iMarker][iVertex] = 0.0;
      Inlet_Ptotal[iMarker][iVertex] = 0.0;
      for (unsigned short iDim = 0; iDim < nDim; iDim++) Inlet_FlowDir[iMarker][iVertex][iDim] = 0.0;
    }
  }
}

template <class V, ENUM_REGIME R>
void CFVMFlowSolverBase<V, R>::LoadRestart_impl(CGeometry **geometry, CSolver ***solver, CConfig *config, int iter,
                                                bool update_geo, su2double* SolutionRestart,
                                                unsigned short nVar_Restart) {
  /*--- Restart the solution from file information ---*/

  const string restart_filename = config->GetFilename(config->GetSolution_FileName(), "", iter);
  const bool static_fsi = ((config->GetTime_Marching() == TIME_MARCHING::STEADY) && config->GetFSI_Simulation());

  /*--- To make this routine safe to call in parallel most of it can only be executed by one thread. ---*/
  BEGIN_SU2_OMP_SAFE_GLOBAL_ACCESS {

    if (nVar_Restart == 0) nVar_Restart = nVar;

    /*--- Skip coordinates ---*/

    unsigned short skipVars = nDim;

    /*--- Read the restart data from either an ASCII or binary SU2 file. ---*/

    if (config->GetRead_Binary_Restart()) {
      Read_SU2_Restart_Binary(geometry[MESH_0], config, restart_filename);
    } else {
      Read_SU2_Restart_ASCII(geometry[MESH_0], config, restart_filename);
    }

    bool steady_restart = config->GetSteadyRestart();
    if (update_geo && dynamic_grid) {
      auto notFound = fields.end();
      if (find(fields.begin(), notFound, string("\"Grid_Velocity_x\"")) == notFound) {
        if (rank == MASTER_NODE)
          cout << "\nWARNING: The restart file does not contain grid velocities, these will be set to zero.\n" << endl;
        steady_restart = true;
      }
    }

    /*--- Load data from the restart into correct containers. ---*/

    unsigned long counter = 0;
    for (auto iPoint_Global = 0ul; iPoint_Global < geometry[MESH_0]->GetGlobal_nPointDomain(); iPoint_Global++) {

      /*--- Retrieve local index. If this node from the restart file lives
      on the current processor, we will load and instantiate the vars. ---*/
