%%%%%%%%%%%%%%%%%%%%%%%%%%%%%%%%%%%%%%%%%%%%%%%%%%%%%%%%%%%%%%%%%%%%%%%%%%%%%%%%
%                                                                              %
% SU2 configuration file                                                       %
% Case description: flow through a heat exchanger, CHT setup                   %
% Author: Nijso Beishuizen, Ole Burghardt                                      %
% Institution: Bosch Thermotechniek BV, Technical University of Kaiserslautern %
% Date: 24/11/2020                                                             %
%                                                                              %
%%%%%%%%%%%%%%%%%%%%%%%%%%%%%%%%%%%%%%%%%%%%%%%%%%%%%%%%%%%%%%%%%%%%%%%%%%%%%%%%

SOLVER= MULTIPHYSICS

CONFIG_LIST= ( lam_prem_ch4_cht_cfd_fluid.cfg, lam_prem_ch4_cht_cfd_solid.cfg )

%%%%%%%%%%%%%%%%%%
%   Mesh stuff   %
%%%%%%%%%%%%%%%%%%

MESH_FORMAT= SU2
MULTIZONE_MESH= YES

% Restart flow input file
SOLUTION_FILENAME= solution

% define the interface between the zones
MARKER_ZONE_INTERFACE= ( cht_interface_fluid, cht_interface_solid )
MARKER_CHT_INTERFACE=  ( cht_interface_fluid, cht_interface_solid )

CHT_COUPLING_METHOD= DIRECT_TEMPERATURE_ROBIN_HEATFLUX

READ_BINARY_RESTART= NO
RESTART_SOL= YES

RESTART_FILENAME= restart
RESTART_ADJ_FILENAME= restart_adj

TIME_DOMAIN= NO
OUTER_ITER= 10

OUTPUT_WRT_FREQ= 500
SCREEN_WRT_FREQ_INNER= 1
SCREEN_WRT_FREQ_OUTER= 1

WRT_VOLUME_OVERWRITE= YES

WRT_ZONE_CONV= YES
CONV_RESIDUAL_MINVAL= -20

VOLUME_FILENAME= fluid

CONV_FILENAME= history

% --------------------------- Optimization Parameters --------------------------%

MESH_FILENAME= mesh_unstructured_cht.su2
