%%%%%%%%%%%%%%%%%%%%%%%%%%%%%%%%%%%%%%%%%%%%%%%%%%%%%%%%%%%%%%%%%%%%%%%%%%%%%%%%
%                                                                              %
% SU2 configuration file                                                       %
% Case description: Transonic simulation S809 (RANS)                           %
% Author: Francisco Palacios                                                   %
% Institution: Stanford University                                             %
% Date: 5/15/2013                                                              %
% File Version 8.0.0 "Harrier"                                                 %
%                                                                              %
%%%%%%%%%%%%%%%%%%%%%%%%%%%%%%%%%%%%%%%%%%%%%%%%%%%%%%%%%%%%%%%%%%%%%%%%%%%%%%%%

% ------------- DIRECT, ADJOINT, AND LINEARIZED PROBLEM DEFINITION ------------%
%
SOLVER= RANS
KIND_TURB_MODEL= SA
KIND_TRANS_MODEL = LM
FREESTREAM_INTERMITTENCY = 0.9
FREESTREAM_TURBULENCEINTENSITY = 0.04
MATH_PROBLEM= DIRECT
RESTART_SOL= NO

% -------------------- COMPRESSIBLE FREE-STREAM DEFINITION --------------------%
%
MACH_NUMBER= 0.1
AOA= 0.0
FREESTREAM_TEMPERATURE= 288.15
REYNOLDS_NUMBER= 2.0E6
REYNOLDS_LENGTH= 1.0

% ---------------------- REFERENCE VALUE DEFINITION ---------------------------%
%
REF_ORIGIN_MOMENT_X = 0.25
REF_ORIGIN_MOMENT_Y = 0.00
REF_ORIGIN_MOMENT_Z = 0.00
REF_LENGTH= 1.0
REF_AREA= 1.0

% -------------------- BOUNDARY CONDITION DEFINITION --------------------------%
%
MARKER_HEATFLUX= ( wall, 0.0 )
MARKER_FAR= ( inlet,outlet )
MARKER_PLOTTING= ( wall )
MARKER_MONITORING= ( wall )

% ------------- COMMON PARAMETERS DEFINING THE NUMERICAL METHOD ---------------%
%
NUM_METHOD_GRAD= WEIGHTED_LEAST_SQUARES
CFL_NUMBER= 2.5
CFL_ADAPT= NO
CFL_ADAPT_PARAM= ( 1.5, 0.5, 1.0, 100.0 )
EXT_ITER= 999999
LINEAR_SOLVER= FGMRES
LINEAR_SOLVER_ERROR= 1E-6
LINEAR_SOLVER_ITER= 20

% -------------------------- MULTIGRID PARAMETERS -----------------------------%
%
MGLEVEL= 3
MGCYCLE= W_CYCLE
MG_PRE_SMOOTH= ( 1, 2, 3, 3 )
MG_POST_SMOOTH= ( 0, 0, 0, 0 )
MG_CORRECTION_SMOOTH= ( 0, 0, 0, 0 )
MG_DAMP_RESTRICTION= 0.95
MG_DAMP_PROLONGATION= 0.95

% -------------------- FLOW NUMERICAL METHOD DEFINITION -----------------------%
%
CONV_NUM_METHOD_FLOW= JST
VENKAT_LIMITER_COEFF= 0.03
JST_SENSOR_COEFF= ( 0.5, 0.02 )
TIME_DISCRE_FLOW= EULER_IMPLICIT

% -------------------- TURBULENT NUMERICAL METHOD DEFINITION ------------------%
%
CONV_NUM_METHOD_TURB= SCALAR_UPWIND
MUSCL_TURB= NO
SLOPE_LIMITER_TURB= VENKATAKRISHNAN
TIME_DISCRE_TURB= EULER_IMPLICIT

% --------------------------- CONVERGENCE PARAMETERS --------------------------%
CONV_RESIDUAL_MINVAL= -8
CONV_STARTITER= 10
CONV_CAUCHY_ELEMS= 100
CONV_CAUCHY_EPS= 1E-6

% ------------------------- INPUT/OUTPUT INFORMATION --------------------------%
%
MESH_FILENAME= s809_2e6.su2
MESH_FORMAT= SU2
MESH_OUT_FILENAME= trans_mesh_out.su2
SOLUTION_FILENAME= trans_solution_flow.dat
SOLUTION_LIN_FILENAME= trans_solution_lin.dat
SOLUTION_ADJ_FILENAME= trans_solution_adj.dat
TABULAR_FORMAT= CSV
CONV_FILENAME= trans_history
RESTART_FILENAME= trans_restart_flow.dat
RESTART_ADJ_FILENAME= trans_restart_adj.dat
RESTART_LIN_FILENAME= trans_restart_lin.dat
VOLUME_FILENAME= trans_flow
VOLUME_ADJ_FILENAME= trans_adjoint
GRAD_OBJFUNC_FILENAME= trans_of_grad.dat
SURFACE_FILENAME= trans_surface_flow
SURFACE_ADJ_FILENAME= trans_surface_adjoint
SURFACE_LIN_FILENAME= trans_surface_linear
OUTPUT_WRT_FREQ= 1000
