%%%%%%%%%%%%%%%%%%%%%%%%%%%%%%%%%%%%%%%%%%%%%%%%%%%%%%%%%%%%%%%%%%%%%%%%%%%%%%%%
% SU2 configuration file                                                       %
% Case description: Fluid Structure Interaction - Wall in channel              %
% Author: R.Sanchez                                                            %
% Institution: Imperial College London                                         %
% Date: 2016.02.01                                                             %
%%%%%%%%%%%%%%%%%%%%%%%%%%%%%%%%%%%%%%%%%%%%%%%%%%%%%%%%%%%%%%%%%%%%%%%%%%%%%%%%

SOLVER= ELASTICITY

OBJECTIVE_FUNCTION= REFERENCE_NODE
REFERENCE_NODE= 3
REFERENCE_NODE_DISPLACEMENT= (0.0, 0.0)
REFERENCE_NODE_PENALTY= 1.0

GEOMETRIC_CONDITIONS= LARGE_DEFORMATIONS
MATERIAL_MODEL= NEO_HOOKEAN
ELASTICITY_MODULUS= 1.5E5
MATERIAL_DENSITY= 50
FORMULATION_ELASTICITY_2D= PLANE_STRESS
POISSON_RATIO= 0.3

MARKER_CLAMPED= ( clamped )
MARKER_FLUID_LOAD= ( wallDownS, wallUpperS, wallUpwS, internal )

BGS_RELAXATION= FIXED_PARAMETER
STAT_RELAX_PARAMETER= 0.5

LINEAR_SOLVER= CONJUGATE_GRADIENT
LINEAR_SOLVER_PREC= ILU
LINEAR_SOLVER_ERROR= 1E-6
LINEAR_SOLVER_ITER= 1000

TIME_DISCRE_FEA= NEWMARK_IMPLICIT
NEWMARK_BETA= 0.25
NEWMARK_GAMMA= 0.5

PREDICTOR= YES
RELAXATION= YES

INNER_ITER= 10
CONV_FIELD= REL_RMS_UTOL
CONV_RESIDUAL_MINVAL= -5

SCREEN_WRT_FREQ_INNER= 100

MESH_FORMAT= SU2
MESH_FILENAME= meshFEA.su2

VOLUME_FILENAME= results_wall
RESTART_FILENAME= restart_wall.dat
SOLUTION_FILENAME= solution_wall.dat

HISTORY_OUTPUT= ITER, RMS_RES, STRUCT_COEFF, TAVG_STRUCT_COEFF
