%%%%%%%%%%%%%%%%%%%%%%%%%%%%%%%%%%%%%%%%%%%%%%%%%%%%%%%%%%%%%%%%%%%%%%%%%%%%%%%%
% SU2 configuration file                                                       %
% Case description: Fluid Structure Interaction - Wall in channel              %
% Author: R.Sanchez                                                            %
% Institution: Imperial College London                                         %
% Date: 2016.02.01                                                             %
%%%%%%%%%%%%%%%%%%%%%%%%%%%%%%%%%%%%%%%%%%%%%%%%%%%%%%%%%%%%%%%%%%%%%%%%%%%%%%%%

SOLVER= NAVIER_STOKES
KIND_TURB_MODEL= NONE
DEFORM_MESH= YES

MATH_PROBLEM= DIRECT

AOA= 0.0
REYNOLDS_NUMBER= 100
REYNOLDS_LENGTH= 0.016
MACH_NUMBER= 0.05
MACH_MOTION= 0.2

INIT_OPTION= TD_CONDITIONS
FREESTREAM_OPTION= DENSITY_FS
FREESTREAM_DENSITY= 1.0
FREESTREAM_PRESSURE= 17.85714286
FREESTREAM_TEMPERATURE= 0.062207438

VISCOSITY_MODEL= CONSTANT_VISCOSITY
MU_CONSTANT= 1.6E-2

REF_ORIGIN_MOMENT_X= 0
REF_ORIGIN_MOMENT_Y= 0
REF_ORIGIN_MOMENT_Z= 0
REF_LENGTH= 0.016
REF_AREA= 0.016

MARKER_INLET= ( inlet, 0.062207438, 23.36216288, 1.0, 0.0, 0.0 )
MARKER_OUTLET= ( outlet, 17.85714286)
MARKER_EULER= ( upper, lower )

MARKER_HEATFLUX= ( wallUpwF, 0.0, wallDownF, 0.0, wallUpperF, 0.0 )
MARKER_DEFORM_MESH= ( wallUpwF, wallDownF, wallUpperF )
MARKER_DEFORM_MESH_SYM_PLANE= ( upper )

MARKER_PLOTTING= ( wallUpwF, wallDownF, wallUpperF )
MARKER_MONITORING= ( wallUpwF, wallDownF, wallUpperF )

TIME_DISCRE_FLOW= EULER_IMPLICIT
CFL_NUMBER= 1000
LINEAR_SOLVER= FGMRES
LINEAR_SOLVER_PREC= ILU
LINEAR_SOLVER_ERROR= 0.05
LINEAR_SOLVER_ITER= 6

TIME_MARCHING= DUAL_TIME_STEPPING-2ND_ORDER
CONV_NUM_METHOD_FLOW= ROE
MUSCL_FLOW= YES
NUM_METHOD_GRAD= WEIGHTED_LEAST_SQUARES
SLOPE_LIMITER_FLOW= NONE

DEFORM_LINEAR_SOLVER= CONJUGATE_GRADIENT
DEFORM_LINEAR_SOLVER_PREC= ILU
DEFORM_LINEAR_SOLVER_ERROR= 1E-9
DEFORM_LINEAR_SOLVER_ITER= 100
DEFORM_STIFFNESS_TYPE= WALL_DISTANCE

INNER_ITER= 50
CONV_FIELD= REL_RMS_DENSITY
CONV_RESIDUAL_MINVAL= -3
CONV_STARTITER= 5

SCREEN_WRT_FREQ_INNER= 100

MESH_FORMAT= SU2
MESH_FILENAME= meshFlow.su2

VOLUME_FILENAME= results_flow
RESTART_FILENAME= restart_flow.dat
SOLUTION_FILENAME= solution_flow.dat

HISTORY_OUTPUT= ITER, RMS_RES, AERO_COEFF, TAVG_AERO_COEFF
