%%%%%%%%%%%%%%%%%%%%%%%%%%%%%%%%%%%%%%%%%%%%%%%%%%%%%%%%%%%%%%%%%%%%%%%%%%%%%%%%
% SU2 configuration file                                                       %
% Case description: Beam 3D                                                    %
% Author: Ruben Sanchez Fernandez                                              %
% Institution: Imperial College London                                         %
% Date: 2016.02.01                                                             %
% File Version 6.2.0 "Falcon"                                                %
%%%%%%%%%%%%%%%%%%%%%%%%%%%%%%%%%%%%%%%%%%%%%%%%%%%%%%%%%%%%%%%%%%%%%%%%%%%%%%%%
                     
PHYSICAL_PROBLEM= ELASTICITY
MATH_PROBLEM= DIRECT
GEOMETRIC_CONDITIONS= SMALL_DEFORMATIONS
MATERIAL_MODEL= LINEAR_ELASTIC
MESH_FILENAME= meshBeam_3d.su2
ELASTICITY_MODULUS=3E7
POISSON_RATIO=0.3
MATERIAL_DENSITY=7854
DYNAMIC_ANALYSIS= NO
MARKER_CLAMPED = ( left , right )
MARKER_PRESSURE= ( lower, 0 , symleft, 0, symright, 0)
MARKER_LOAD= ( upper, 1, 1000, 0, -1, 0)
LINEAR_SOLVER= FGMRES
LINEAR_SOLVER_PREC= LU_SGS
LINEAR_SOLVER_ERROR= 1E-8
LINEAR_SOLVER_ITER= 500
MESH_FORMAT= SU2
OUTPUT_FORMAT= PARAVIEW
WRT_SRF_SOL = NO
CONV_FILENAME= history_beam
VOLUME_STRUCTURE_FILENAME= beam
RESTART_STRUCTURE_FILENAME= restart_beam.dat
WRT_SOL_FREQ= 1
WRT_SOL_FREQ_DUALTIME= 1
WRT_CON_FREQ= 1
WRT_CON_FREQ_DUALTIME= 1
