%%%%%%%%%%%%%%%%%%%%%%%%%%%%%%%%%%%%%%%%%%%%%%%%%%%%%%%%%%%%%%%%%%%%%%%%%%%%%%%%
%                                                                              %
% SU2 configuration file                                                       %
% Case description: Transonic turbulent flow around a NACA 64A010 airfoil      %
% Author: Thomas D. Economon                                                   %
% Institution: Stanford University                                             %
% Date: 2011.11.02                                                             %
% File Version 6.2.0 "Falcon"                                                %
%                                                                              %
%%%%%%%%%%%%%%%%%%%%%%%%%%%%%%%%%%%%%%%%%%%%%%%%%%%%%%%%%%%%%%%%%%%%%%%%%%%%%%%%

% ------------- DIRECT, ADJOINT, AND LINEARIZED PROBLEM DEFINITION ------------%
%
% Physical governing equations (EULER, NAVIER_STOKES,
%                               WAVE_EQUATION, HEAT_EQUATION, FEM_ELASTICITY,
%                               POISSON_EQUATION)
PHYSICAL_PROBLEM= EULER
%
% Specify turbulent model (NONE, SA, SA_NEG, SST)
KIND_TURB_MODEL= NONE
%
% Mathematical problem (DIRECT, CONTINUOUS_ADJOINT)
MATH_PROBLEM= DIRECT
%
% Restart solution (NO, YES)
RESTART_SOL= NO

% ------------------------- UNSTEADY SIMULATION -------------------------------%
%
% Unsteady simulation (NO, TIME_STEPPING, DUAL_TIME_STEPPING-1ST_ORDER, 
%                      DUAL_TIME_STEPPING-2ND_ORDER)
UNSTEADY_SIMULATION= DUAL_TIME_STEPPING-2ND_ORDER
%
% Time Step for dual time stepping simulations (s)
UNST_TIMESTEP= 0.0023555025613149587
% 24 steps per period: 0.0024536485013697488
% 25 steps per period: 0.0023555025613149587
%
% Total Physical Time for dual time stepping simulations (s)
UNST_TIME= 0.59
% 10 periods: 0.5888756403287397
%
% Number of internal iterations (dual time method)
UNST_INT_ITER= 110
%
% Starting direct iteration for unsteady adjoint
UNST_ADJOINT_ITER= 251

% ----------------------- DYNAMIC MESH DEFINITION -----------------------------%
%
% Dynamic mesh simulation (NO, YES)
GRID_MOVEMENT= YES
%
% Type of mesh motion (NONE, FLUTTER, RIGID_MOTION, FLUID_STRUCTURE)
GRID_MOVEMENT_KIND= RIGID_MOTION
%
% Motion mach number (non-dimensional). Used for initializing a viscous flow
% with the Reynolds number and for computing force coeffs. with dynamic meshes.
MACH_MOTION= 0.796
%
% Coordinates of the rigid motion origin
MOTION_ORIGIN_X= 0.248
MOTION_ORIGIN_Y= 0.0
MOTION_ORIGIN_Z= 0.0
%
% Pitching angular freq. (rad/s) about x, y, & z axes (RIGID_MOTION only)
PITCHING_OMEGA_X= 0.0
PITCHING_OMEGA_Y= 0.0
PITCHING_OMEGA_Z= 106.69842
%
% Pitching amplitude (degrees) about x, y, & z axes (RIGID_MOTION only)
PITCHING_AMPL_X= 0.0
PITCHING_AMPL_Y= 0.0
PITCHING_AMPL_Z= 1.01
 
% ----------- COMPRESSIBLE AND INCOMPRESSIBLE FREE-STREAM DEFINITION ----------%
%
% Mach number (non-dimensional, based on the free-stream values)
MACH_NUMBER= 0.796
%
% Angle of attack (degrees)
AOA= 0.0
%
% Free-stream pressure (101325.0 N/m^2 by default, only Euler flows)
FREESTREAM_PRESSURE= 101325.0
%
% Free-stream temperature (288.15 K by default)
FREESTREAM_TEMPERATURE= 288.15

% ---------------------- REFERENCE VALUE DEFINITION ---------------------------%
%
% Reference origin for moment computation
REF_ORIGIN_MOMENT_X = 0.248
REF_ORIGIN_MOMENT_Y = 0.00
REF_ORIGIN_MOMENT_Z = 0.00
%
% Reference length for pitching, rolling, and yawing non-dimensional moment
REF_LENGTH= 1.0
%
% Reference area for force coefficients (0 implies automatic calculation)
REF_AREA= 1.0

% ----------------------- BOUNDARY CONDITION DEFINITION -----------------------%
%
% Marker of the Euler boundary (0 = no marker)
MARKER_EULER= ( airfoil )
%
% Marker of the far field (0 = no marker)
MARKER_FAR= ( farfield )

% ------------------------ SURFACES IDENTIFICATION ----------------------------%
%
% Marker(s) of the surface in the surface flow solution file
MARKER_PLOTTING = ( airfoil )
%
% Marker(s) of the surface where the non-dimensional coefficients are evaluated.
MARKER_MONITORING = ( airfoil )
%
% Marker(s) of the surface where obj. func. (design problem) will be evaluated
MARKER_DESIGNING = ( airfoil )

% ------------- COMMON PARAMETERS TO DEFINE THE NUMERICAL METHOD --------------%
%
% Numerical method for spatial gradients (GREEN_GAUSS, WEIGHTED_LEAST_SQUARES)
NUM_METHOD_GRAD= WEIGHTED_LEAST_SQUARES
%
% Courant-Friedrichs-Lewy condition of the finest grid
CFL_NUMBER= 10.0
%
% Adaptive CFL number (NO, YES)
CFL_ADAPT= NO
%
% Parameters of the adaptive CFL number (factor down, factor up, CFL min value,
%                                        CFL max value )
CFL_ADAPT_PARAM= ( 1.5, 0.5, 1.0, 100.0 )
%
% Runge-Kutta alpha coefficients
RK_ALPHA_COEFF= ( 0.66667, 0.66667, 1.000000 )
%
% Number of total iterations
EXT_ITER= 99999

% ------------------------ LINEAR SOLVER DEFINITION ---------------------------%
%
% Linear solver for the implicit (or discrete adjoint) formulation (BCGSTAB, FGMRES)
LINEAR_SOLVER= FGMRES
%
% Preconditioner of the Krylov linear solver (JACOBI, LINELET, LU_SGS)
LINEAR_SOLVER_PREC= LU_SGS
%
% Min error of the linear solver for the implicit formulation
LINEAR_SOLVER_ERROR= 1E-6
%
% Max number of iterations of the linear solver for the implicit formulation
LINEAR_SOLVER_ITER= 5

% -------------------------- MULTIGRID PARAMETERS -----------------------------%
%
% Multi-Grid Levels (0 = no multi-grid)
MGLEVEL= 3
%
% Multi-grid cycle (V_CYCLE, W_CYCLE, FULLMG_CYCLE)
MGCYCLE= W_CYCLE
%
% Multi-Grid PreSmoothing Level
MG_PRE_SMOOTH= ( 1, 2, 3, 3 )
%
% Multi-Grid PostSmoothing Level
MG_POST_SMOOTH= ( 0, 0, 0, 0 )
%
% Jacobi implicit smoothing of the correction
MG_CORRECTION_SMOOTH= ( 0, 0, 0, 0 )
%
% Damping factor for the residual restriction
MG_DAMP_RESTRICTION= 0.9
%
% Damping factor for the correction prolongation
MG_DAMP_PROLONGATION= 0.9

% -------------------- FLOW NUMERICAL METHOD DEFINITION -----------------------%
%
% Convective numerical method (JST, LAX-FRIEDRICH, CUSP, ROE, AUSM, HLLC,
%                              TURKEL_PREC, MSW)
CONV_NUM_METHOD_FLOW= JST
%
% Monotonic Upwind Scheme for Conservation Laws (TVD) in the flow equations.
%           Required for 2nd order upwind schemes (NO, YES)
MUSCL_FLOW= YES
%
% Slope limiter (VENKATAKRISHNAN, MINMOD)
SLOPE_LIMITER_FLOW= VENKATAKRISHNAN
%
% Coefficient for the limiter (smooth regions)
VENKAT_LIMITER_COEFF= 0.1
%
% 2nd and 4th order artificial dissipation coefficients
JST_SENSOR_COEFF= ( 0.5, 0.02 )
%
% Time discretization (RUNGE-KUTTA_EXPLICIT, EULER_IMPLICIT, EULER_EXPLICIT)
TIME_DISCRE_FLOW= EULER_IMPLICIT

% ---------------- ADJOINT-FLOW NUMERICAL METHOD DEFINITION -------------------%
%
% Adjoint problem boundary condition (DRAG, LIFT, SIDEFORCE, MOMENT_X,
%                                     MOMENT_Y, MOMENT_Z, EFFICIENCY, 
%                                     EQUIVALENT_AREA, NEARFIELD_PRESSURE,
%                                     FORCE_X, FORCE_Y, FORCE_Z, THRUST, TORQUE)
OBJECTIVE_FUNCTION= DRAG
%
% Convective numerical method (JST, LAX-FRIEDRICH, ROE)
CONV_NUM_METHOD_ADJFLOW= JST
%
% Monotonic Upwind Scheme for Conservation Laws (TVD) in the adjoint flow equations.
%           Required for 2nd order upwind schemes (NO, YES)
MUSCL_ADJFLOW= YES
%
% Slope limiter (NONE, VENKATAKRISHNAN, BARTH_JESPERSEN, VAN_ALBADA_EDGE,
%                SHARP_EDGES, WALL_DISTANCE)
SLOPE_LIMITER_ADJFLOW= NONE
%
% 2nd, and 4th order artificial dissipation coefficients
ADJ_JST_SENSOR_COEFF= ( 0.0, 0.02 )
%
% Reduction factor of the CFL coefficient in the adjoint problem
CFL_REDUCTION_ADJFLOW= 0.5
%
% Time discretization (RUNGE-KUTTA_EXPLICIT, EULER_IMPLICIT)
TIME_DISCRE_ADJFLOW= EULER_IMPLICIT
%
% Adjoint frozen viscosity (NO, YES)
FROZEN_VISC_CONT= YES

% ----------------------- GEOMETRY EVALUATION PARAMETERS ----------------------%
%
% Marker(s) of the surface where geometrical based function will be evaluated
GEO_MARKER= ( airfoil )
%
% Description of the geometry to be analyzed (AIRFOIL, WING, FUSELAGE)
GEO_DESCRIPTION= AIRFOIL
%
% Geometrical evaluation mode (FUNCTION, GRADIENT)
GEO_MODE= FUNCTION

% ------------------------ GRID DEFORMATION PARAMETERS ------------------------%
% Kind of deformation (FFD_SETTING, HICKS_HENNE, HICKS_HENNE_NORMAL, PARABOLIC,
%                      HICKS_HENNE_SHOCK, NACA_4DIGITS, DISPLACEMENT, ROTATION, 
%                      FFD_CONTROL_POINT, FFD_DIHEDRAL_ANGLE, FFD_TWIST_ANGLE, 
%                      FFD_ROTATION)
DV_KIND= HICKS_HENNE
%
% Marker of the surface in which we are going apply the shape deformation
DV_MARKER= ( airfoil )
%
% Parameters of the shape deformation 
% 	- HICKS_HENNE_FAMILY ( Lower(0)/Upper(1) side, x_Loc )
% 	- NACA_4DIGITS ( 1st digit, 2nd digit, 3rd and 4th digit )
% 	- PARABOLIC ( 1st digit, 2nd and 3rd digit )
% 	- DISPLACEMENT ( x_Disp, y_Disp, z_Disp )
% 	- ROTATION ( x_Orig, y_Orig, z_Orig, x_End, y_End, z_End )
DV_PARAM= ( 1, 0.5 )
%
% Old value of the deformation for incremental deformations
DV_VALUE= 0.0
%
% Visualize the surface deformation (NO, YES)
VISUALIZE_SURFACE_DEF= NO
%
% Visualize the volume deformation (NO, YES)
VISUALIZE_VOLUME_DEF= NO

% --------------------------- CONVERGENCE PARAMETERS --------------------------%
% Convergence criteria (CAUCHY, RESIDUAL)
%
CONV_CRITERIA= RESIDUAL
%
% Residual reduction (order of magnitude with respect to the initial value)
RESIDUAL_REDUCTION= 3
%
% Min value of the residual (log10 of the residual)
RESIDUAL_MINVAL= -10
%
% Start Cauchy criteria at iteration number
STARTCONV_ITER= 10
%
% Number of elements to apply the criteria
CAUCHY_ELEMS= 100
%
% Epsilon to control the series convergence
CAUCHY_EPS= 1E-6
%
% Function to apply the criteria (LIFT, DRAG, SENS_GEOMETRY, SENS_MACH,
%                                 DELTA_LIFT, DELTA_DRAG)
CAUCHY_FUNC_FLOW= DRAG
CAUCHY_FUNC_ADJFLOW= SENS_GEOMETRY

% ------------------------- INPUT/OUTPUT INFORMATION --------------------------%
%
% Mesh input file
MESH_FILENAME= mesh_NACA64A010_inv.su2
%
% Mesh input file format (SU2, CGNS, NETCDF_ASCII)
MESH_FORMAT= SU2
%
% Mesh output file
MESH_OUT_FILENAME= mesh_out.su2
%
% Restart flow input file
SOLUTION_FLOW_FILENAME= restart_flow.dat
%
% Restart adjoint input file
SOLUTION_ADJ_FILENAME= solution_adj.dat
%
% Output file format (PARAVIEW, TECPLOT)
OUTPUT_FORMAT= TECPLOT
%
% Output file convergence history (w/o extension) 
CONV_FILENAME= history
%
% Output file restart flow
RESTART_FLOW_FILENAME= restart_flow.dat
%
% Output file restart adjoint
RESTART_ADJ_FILENAME= restart_adj.dat
%
% Output file flow (w/o extension) variables
VOLUME_FLOW_FILENAME= flow
%
% Output file adjoint (w/o extension) variables
VOLUME_ADJ_FILENAME= adjoint
%
% Output Objective function gradient (using continuous adjoint)
GRAD_OBJFUNC_FILENAME= of_grad.dat
%
% Output file surface flow coefficient (w/o extension)
SURFACE_FLOW_FILENAME= surface_flow
%
% Output file surface adjoint coefficient (w/o extension)
SURFACE_ADJ_FILENAME= surface_adjoint
%
% Writing solution file frequency
WRT_SOL_FREQ= 250
%
% Writing convergence history frequency
WRT_CON_FREQ= 1

% --------------------- OPTIMAL SHAPE DESIGN DEFINITION -----------------------%
% Available Objective functions
%    DRAG, LIFT, SIDEFORCE, PRESSURE, FORCE_X, FORCE_Y,
%    FORCE_Z, MOMENT_X, MOMENT_Y, MOMENT_Z, EFFICIENCY,
%    EQUIVALENT_AREA, THRUST, TORQUE

% Optimization objective function with optional scaling factor
% ex= Objective * Scale
OPT_OBJECTIVE= DRAG * 0.001

% Optimization constraint functions with scaling factors, separated by semicolons
% ex= (Objective = Value ) * Scale, use '>','<','='
OPT_CONSTRAINT= ( LIFT = 0.0 ) * 0.001; ( AREA > 0.0660957 ) * 0.001
%
% List of design variables (Design variables are separated by semicolons)
% From 1 to 99, Geometrycal design variables.
%  - HICKS_HENNE ( 1, Scale | Mark. List | Lower(0)/Upper(1) side, x_Loc )
%  - NACA_4DIGITS ( 4, Scale | Mark. List |  1st digit, 2nd digit, 3rd and 4th digit )
%  - ROTATION ( 6, Scale | Mark. List | x_Axis, y_Axis, z_Axis, x_Turn, y_Turn, z_Turn )
% From 100 to 199, Flow solver design variables.
%  - MACH_NUMBER ( 101, Scale | Markers List )
%  - AOA ( 102, Scale | Markers List )
DEFINITION_DV= ( 1, 1.0 | airfoil | 0, 0.961538461538 ); ( 1, 1.0 | airfoil | 0, 0.923076923077 ); ( 1, 1.0 | airfoil | 0, 0.884615384615 ); ( 1, 1.0 | airfoil | 0, 0.846153846154 ); ( 1, 1.0 | airfoil | 0, 0.807692307692 ); ( 1, 1.0 | airfoil | 0, 0.769230769231 ); ( 1, 1.0 | airfoil | 0, 0.730769230769 ); ( 1, 1.0 | airfoil | 0, 0.692307692308 ); ( 1, 1.0 | airfoil | 0, 0.653846153846 ); ( 1, 1.0 | airfoil | 0, 0.615384615385 ); ( 1, 1.0 | airfoil | 0, 0.576923076923 ); ( 1, 1.0 | airfoil | 0, 0.538461538462 ); ( 1, 1.0 | airfoil | 0, 0.5 ); ( 1, 1.0 | airfoil | 0, 0.461538461538 ); ( 1, 1.0 | airfoil | 0, 0.423076923077 ); ( 1, 1.0 | airfoil | 0, 0.384615384615 ); ( 1, 1.0 | airfoil | 0, 0.346153846154 ); ( 1, 1.0 | airfoil | 0, 0.307692307692 ); ( 1, 1.0 | airfoil | 0, 0.269230769231 ); ( 1, 1.0 | airfoil | 0, 0.230769230769 ); ( 1, 1.0 | airfoil | 0, 0.192307692308 ); ( 1, 1.0 | airfoil | 0, 0.153846153846 ); ( 1, 1.0 | airfoil | 0, 0.115384615385 ); ( 1, 1.0 | airfoil | 0, 0.0769230769231 ); ( 1, 1.0 | airfoil | 0, 0.0384615384615 ); ( 1, 1.0 | airfoil | 1, 0.0384615384615 ); ( 1, 1.0 | airfoil | 1, 0.0769230769231 ); ( 1, 1.0 | airfoil | 1, 0.115384615385 ); ( 1, 1.0 | airfoil | 1, 0.153846153846 ); ( 1, 1.0 | airfoil | 1, 0.192307692308 ); ( 1, 1.0 | airfoil | 1, 0.230769230769 ); ( 1, 1.0 | airfoil | 1, 0.269230769231 ); ( 1, 1.0 | airfoil | 1, 0.307692307692 ); ( 1, 1.0 | airfoil | 1, 0.346153846154 ); ( 1, 1.0 | airfoil | 1, 0.384615384615 ); ( 1, 1.0 | airfoil | 1, 0.423076923077 ); ( 1, 1.0 | airfoil | 1, 0.461538461538 ); ( 1, 1.0 | airfoil | 1, 0.5 ); ( 1, 1.0 | airfoil | 1, 0.538461538462 ); ( 1, 1.0 | airfoil | 1, 0.576923076923 ); ( 1, 1.0 | airfoil | 1, 0.615384615385 ); ( 1, 1.0 | airfoil | 1, 0.653846153846 ); ( 1, 1.0 | airfoil | 1, 0.692307692308 ); ( 1, 1.0 | airfoil | 1, 0.730769230769 ); ( 1, 1.0 | airfoil | 1, 0.769230769231 ); ( 1, 1.0 | airfoil | 1, 0.807692307692 ); ( 1, 1.0 | airfoil | 1, 0.846153846154 ); ( 1, 1.0 | airfoil | 1, 0.884615384615 ); ( 1, 1.0 | airfoil | 1, 0.923076923077 ); ( 1, 1.0 | airfoil | 1, 0.961538461538 )
