/*!
 * \file option_structure.inl
 * \brief Template derived classes from COption, defined here as we
 *        only include them where needed to reduce compilation time.
 * \author J. Hicken, B. Tracey
 * \version 7.2.0 "Blackbird"
 *
 * SU2 Project Website: https://su2code.github.io
 *
 * The SU2 Project is maintained by the SU2 Foundation
 * (http://su2foundation.org)
 *
 * Copyright 2012-2021, SU2 Contributors (cf. AUTHORS.md)
 *
 * SU2 is free software; you can redistribute it and/or
 * modify it under the terms of the GNU Lesser General Public
 * License as published by the Free Software Foundation; either
 * version 2.1 of the License, or (at your option) any later version.
 *
 * SU2 is distributed in the hope that it will be useful,
 * but WITHOUT ANY WARRANTY; without even the implied warranty of
 * MERCHANTABILITY or FITNESS FOR A PARTICULAR PURPOSE. See the GNU
 * Lesser General Public License for more details.
 *
 * You should have received a copy of the GNU Lesser General Public
 * License along with SU2. If not, see <http://www.gnu.org/licenses/>.
 */

using namespace std;

template <class Tenum, class TField>
class COptionEnum final : public COptionBase {

  const map<string, Tenum>& m;
  TField& field; // Reference to the fieldname
  const Tenum def; // Default value
  const string name; // identifier for the option

public:
  COptionEnum() = delete;

  COptionEnum(string option_field_name, const map<string, Tenum>& m_, TField& option_field, Tenum default_value) :
    m(m_),
    field(option_field),
    def(default_value),
    name(std::move(option_field_name)) {
  }

  ~COptionEnum() = default;

  string SetValue(vector<string> option_value) override {
    COptionBase::SetValue(option_value);
    // Check if there is more than one string
    string out = optionCheckMultipleValues(option_value, "enum", name);
    if (out.compare("") != 0) {
      return out;
    }

    // Check to see if the enum value is in the map
    auto it = m.find(option_value[0]);

    if (it == m.cend()) {
      stringstream ss;
      ss << name << ": invalid option value " << option_value[0] << ".\nDid you mean";
      for (auto& item : m) ss << ", " << item.first;
      ss << "?";
      return ss.str();
    }
    // If it is there, set the option value
    field = it->second;
    return "";
  }

  void SetDefault() override { field = def; }
};

template<typename Scalar>
class COptionScalar : public COptionBase {
protected:
  Scalar& field; // Reference to the fieldname
  const Scalar def; // Default value
  const string name; // identifier for the option
  const string typeName; // name for the scalar type

public:
  COptionScalar() = delete;

  COptionScalar(const string& type_name,
                const string& option_field_name,
                Scalar& option_field,
                Scalar default_value) :
    field(option_field),
    def(default_value),
    name(option_field_name),
    typeName(type_name) {
  }

  ~COptionScalar() = default;

  string SetValue(vector<string> option_value) override {
    COptionBase::SetValue(option_value);

    string out = optionCheckMultipleValues(option_value, typeName, name);
    if (!out.empty()) return out;

    istringstream is(option_value.front());
    if (is >> field) return "";

    return badValue(option_value, typeName, name);
  }

  void SetDefault() final {
    field = def;
  }
};

class COptionDouble final : public COptionScalar<su2double> {
public:
  template<class... Ts>
  COptionDouble(Ts&&... args) :
    COptionScalar<su2double>("su2double", args...) {
  }
};

class COptionInt final : public COptionScalar<int> {
public:
  template<class... Ts>
  COptionInt(Ts&&... args) :
    COptionScalar<int>("int", args...) {
  }
};

class COptionULong final : public COptionScalar<unsigned long> {
public:
  template<class... Ts>
  COptionULong(Ts&&... args) :
    COptionScalar<unsigned long>("unsigned long", args...) {
  }
};

class COptionUShort final : public COptionScalar<unsigned short> {
public:
  template<class... Ts>
  COptionUShort(Ts&&... args) :
    COptionScalar<unsigned short>("unsigned short", args...) {
  }
};

class COptionLong final : public COptionScalar<long> {
public:
  template<class... Ts>
  COptionLong(Ts&&... args) :
    COptionScalar<long>("long", args...) {
  }
};

class COptionString final : public COptionScalar<string> {
public:
  template<class... Ts>
  COptionString(Ts&&... args) :
    COptionScalar<string>("string", args...) {
  }
};

class COptionBool final : public COptionScalar<bool> {
public:
  template<class... Ts>
  COptionBool(Ts&&... args) :
    COptionScalar<bool>("bool", args...) {
  }

  string SetValue(vector<string> option_value) override {
    COptionBase::SetValue(option_value);

    string result;
    auto msg = COptionScalar<string>("bool",name,result,"").SetValue(option_value);

    if (!msg.empty()) return msg;

    if (result.compare("YES") == 0) {
      field = true;
      return "";
    }
    if (result.compare("NO") == 0) {
      field = false;
      return "";
    }

    return badValue(option_value, "bool", name);
  }
};

template <class Tenum, class TField>
class COptionEnumList final : public COptionBase {

  const map<string, Tenum>& m;
  TField*& field;
  unsigned short& mySize;
  const string name;

public:
  COptionEnumList() = delete;

  COptionEnumList(string option_field_name, const map<string,Tenum>& m_, TField*& option_field, unsigned short& list_size) :
    m(m_),
    field(option_field),
    mySize(list_size),
    name(option_field_name) {
  }

  ~COptionEnumList() = default;

  string SetValue(vector<string> option_value) override {
    COptionBase::SetValue(option_value);
    if (option_value.size() == 1 && option_value[0].compare("NONE") == 0) {
      mySize = 0;
      return "";
    }
    // size is the length of the option list
    mySize = option_value.size();
    field = new TField[mySize];

    for (unsigned short i = 0; i < mySize; i++) {
      // Check to see if the enum value is in the map

      auto it = m.find(option_value[i]);

      if (it == m.cend()) {
        stringstream ss;
        ss << name << ": invalid option value " << option_value[i] << ".\nDid you mean";
        for (auto& item : m) ss << ", " << item.first;
        ss << "?";
        return ss.str();
      }
      // If it is there, set the option value
      field[i] = it->second;
    }
    return "";
  }

  void SetDefault() override { mySize = 0; }
};

template<class Type>
class COptionArray final : public COptionBase {
  string name; // Identifier for the option
  const int size; // Number of elements
  Type* field; // Reference to the field

public:
  COptionArray(string option_field_name, const int list_size, Type* option_field) :
    name(option_field_name),
    size(list_size),
    field(option_field) {
  }

  ~COptionArray() override {};

  string SetValue(vector<string> option_value) override {
    COptionBase::SetValue(option_value);
    // Check that the size is correct
    if (option_value.size() != (unsigned long)this->size) {
      string newstring;
      newstring.append(this->name);
      newstring.append(": wrong number of arguments: ");
      stringstream ss;
      ss << this->size;
      newstring.append(ss.str());
      newstring.append(" expected, ");
      stringstream ss2;
      ss2 << option_value.size();
      newstring.append(ss2.str());
      newstring.append(" found");
      return newstring;
    }
    for (int i  = 0; i < this->size; i++) {
      istringstream is(option_value[i]);
      if (!(is >> field[i])) {
        return badValue(option_value, " array", this->name);
      }
    }
    return "";
  }

  void SetDefault() override {}
};

template<typename Scalar>
class COptionScalarList : public COptionBase {
  Scalar*& field; // reference to the field
  const string name; // identifier for the option
  unsigned short& mySize; // size of the list
  const string typeName; // name of the scalar type

public:
  COptionScalarList() = delete;

  COptionScalarList(const string& type_name,
                    const string& option_field_name,
                    unsigned short& list_size,
                    Scalar*& option_field) :
    field(option_field),
    name(option_field_name),
    mySize(list_size),
    typeName(type_name) {
  }

  ~COptionScalarList() = default;

  string SetValue(vector<string> option_value) final {
    COptionBase::SetValue(option_value);
    // The size is the length of option_value
    mySize = option_value.size();
    if (mySize == 1 && option_value[0].compare("NONE") == 0) {
      // No options
      mySize = 0;
      return "";
    }

    // Parse all of the options
    field = new Scalar[mySize];
    for (unsigned short i = 0; i < mySize; i++) {
      istringstream is(option_value[i]);
      Scalar val;
      if (!(is >> val)) {
        return badValue(option_value, typeName+" list", name);
      }
      field[i] = std::move(val);
    }
    return "";
  }

  void SetDefault() final {
    mySize = 0; // There is no default value for list
  }
};

class COptionDoubleList final : public COptionScalarList<su2double> {
public:
  template<class... Ts>
  COptionDoubleList(Ts&&... args) :
    COptionScalarList<su2double>("su2double", args...) {
  }
};

class COptionShortList final : public COptionScalarList<short> {
public:
  template<class... Ts>
  COptionShortList(Ts&&... args) :
    COptionScalarList<short>("short", args...) {
  }
};

class COptionUShortList final : public COptionScalarList<unsigned short> {
public:
  template<class... Ts>
  COptionUShortList(Ts&&... args) :
    COptionScalarList<unsigned short>("unsigned short", args...) {
  }
};

class COptionStringList final : public COptionScalarList<string> {
public:
  template<class... Ts>
  COptionStringList(Ts&&... args) :
    COptionScalarList<string>("string", args...) {
  }
};

class COptionConvect : public COptionBase {
  string name; // identifier for the option
  unsigned short & space;
  unsigned short & centered;
  unsigned short & upwind;

public:
  COptionConvect(string option_field_name, unsigned short & space_field, unsigned short & centered_field, unsigned short & upwind_field)
    : name(option_field_name), space(space_field), centered(centered_field), upwind(upwind_field) { }

  string SetValue(vector<string> option_value) override {
    COptionBase::SetValue(option_value);

    string out = optionCheckMultipleValues(option_value, "unsigned short", this->name);
    if (out.compare("") != 0) {
      return out;
    }

    if (Centered_Map.count(option_value[0])) {
      this->space = Space_Map.find("SPACE_CENTERED")->second;
      this->centered = Centered_Map.find(option_value[0])->second;
      this->upwind = NO_UPWIND;
      return "";
    }
    if (Upwind_Map.count(option_value[0])) {
      this->space = Space_Map.find("SPACE_UPWIND")->second;
      this->upwind = Upwind_Map.find(option_value[0])->second;
      this->centered = NO_CENTERED;
      return "";
    }
    // Make them defined in case something weird happens
    SetDefault();
    return badValue(option_value, "convect", this->name);

  }

  void SetDefault() override {
    this->centered = NO_CENTERED;
    this->upwind = NO_UPWIND;
    this->space = NO_CONVECTIVE;
  }
};

class COptionFEMConvect : public COptionBase{
  string name; // identifier for the option
  unsigned short & space;
  unsigned short & fem;

public:
  COptionFEMConvect(string option_field_name, unsigned short & space_field, unsigned short & fem_field) : space(space_field), fem(fem_field) {
    this->name = option_field_name;
  }

  ~COptionFEMConvect() override {};
  string SetValue(vector<string> option_value) override {
    COptionBase::SetValue(option_value);

    string out = optionCheckMultipleValues(option_value, "unsigned short", this->name);
    if (out.compare("") != 0) {
      return out;
    }

    if (FEM_Map.count(option_value[0])) {
      this->space = Space_Map.find("FINITE_ELEMENT")->second;
      this->fem = FEM_Map.find(option_value[0])->second;
      return "";
    }

    // Make them defined in case something weird happens
    this->fem = NO_FEM;
    return badValue(option_value, "convect", this->name);

  }

  void SetDefault() override {
    this->fem = NO_FEM;
  }
};

class COptionMathProblem : public COptionBase {
  string name; // identifier for the option
  bool & cont_adjoint;
  bool cont_adjoint_def;
  bool & disc_adjoint;
  bool disc_adjoint_def;
  bool & restart;
  bool restart_def;
  bool & rom;
  bool rom_def;

public:

  COptionMathProblem(string option_field_name, bool & cont_adjoint_field, bool cont_adjoint_default, bool & disc_adjoint_field, bool disc_adjoint_default, bool & restart_field, bool restart_default, bool & rom_field, bool rom_default) : cont_adjoint(cont_adjoint_field), disc_adjoint(disc_adjoint_field), restart(restart_field), rom(rom_field) {
    name = option_field_name;
    cont_adjoint_def = cont_adjoint_default;
    disc_adjoint_def = disc_adjoint_default;
    restart_def = restart_default;
    rom_def = rom_default;
  }

  ~COptionMathProblem() override {};
  string SetValue(vector<string> option_value) override {
    COptionBase::SetValue(option_value);
    string out = optionCheckMultipleValues(option_value, "unsigned short", name);
    if (out.compare("") != 0) {
      return out;
    }
    else if (option_value[0] == "ADJOINT") {
      return badValue(option_value, "math problem (try CONTINUOUS_ADJOINT)", name);
    }
    else if (option_value[0] == "DIRECT") {
      cont_adjoint = false;
      disc_adjoint = false;
      restart = false;
      rom = false;
      return "";
    }
    else if (option_value[0] == "CONTINUOUS_ADJOINT") {
      cont_adjoint= true;
      disc_adjoint = false;
      restart= true;
      rom = false;
      return "";
    }
    else if (option_value[0] == "DISCRETE_ADJOINT") {
      disc_adjoint = true;
      cont_adjoint= false;
      restart = true;
      rom = false;
      return "";
    }
    else if (option_value[0] == "ROM") {
      disc_adjoint = false;
      cont_adjoint= false;
      restart = false;
      rom = true;
      return "";
    }  
    return badValue(option_value, "math problem", name);
  }

  void SetDefault() override {
    cont_adjoint = cont_adjoint_def;
    disc_adjoint = disc_adjoint_def;
    restart = restart_def;
  }

};

class COptionDVParam : public COptionBase {
  string name; // identifier for the option
  unsigned short & nDV;
  su2double ** & paramDV;
  string * & FFDTag;
  unsigned short* & design_variable;

public:
  COptionDVParam(string option_field_name, unsigned short & nDV_field, su2double** & paramDV_field, string* & FFDTag_field, unsigned short * & design_variable_field) : nDV(nDV_field), paramDV(paramDV_field), FFDTag(FFDTag_field), design_variable(design_variable_field) {
    this->name = option_field_name;
  }

  ~COptionDVParam() override {};

  string SetValue(vector<string> option_value) override {
    COptionBase::SetValue(option_value);
    if ((option_value.size() == 1) && (option_value[0].compare("NONE") == 0)) {
      this->nDV = 0;
      return "";
    }

    // Cannot have ; at the beginning or the end
    if (option_value[0].compare(";") == 0) {
      string newstring;
      newstring.append(this->name);
      newstring.append(": may not have beginning semicolon");
      return newstring;
    }
    if (option_value[option_value.size()-1].compare(";") == 0) {
      string newstring;
      newstring.append(this->name);
      newstring.append(": may not have ending semicolon");
      return newstring;
    }


    // use the ";" token to determine the number of design variables
    // This works because semicolon is not one of the delimiters in tokenize string
    this->nDV = 0;
    //unsigned int num_semi = 0;
    for (unsigned int i = 0; i < static_cast<unsigned int>(option_value.size()); i++) {
      if (option_value[i].compare(";") == 0) {
        this->nDV++;
        //        num_semi++;
      }
    }

    // One more design variable than semicolon
    this->nDV++;

    if ( (this->nDV > 0) && (this->design_variable == nullptr) ) {
      string newstring;
      newstring.append(this->name);
      newstring.append(": Design_Variable array has not been allocated. Check that DV_KIND appears before DV_PARAM in configuration file.");
      return newstring;
    }

    this->paramDV = new su2double*[this->nDV];
    for (unsigned short iDV = 0; iDV < this->nDV; iDV++) {
      this->paramDV[iDV] = new su2double[MAX_PARAMETERS];
    }

    this->FFDTag = new string[this->nDV];

   vector<unsigned short> nParamDV(nDV, 0);
   unsigned short totalnParamDV = 0;
   stringstream ss;
   unsigned int i = 0;

    for (unsigned short iDV = 0; iDV < this->nDV; iDV++) {
      switch (this->design_variable[iDV]) {
        case NO_DEFORMATION:       nParamDV[iDV] = 0; break;
        case FFD_SETTING:          nParamDV[iDV] = 0; break;
        case FFD_CONTROL_POINT_2D: nParamDV[iDV] = 5; break;
        case FFD_CAMBER_2D:        nParamDV[iDV] = 2; break;
        case FFD_THICKNESS_2D:     nParamDV[iDV] = 2; break;
        case FFD_TWIST_2D:         nParamDV[iDV] = 3; break;
        case HICKS_HENNE:          nParamDV[iDV] = 2; break;
        case SURFACE_BUMP:         nParamDV[iDV] = 3; break;
        case CST:                  nParamDV[iDV] = 3; break;
        case ANGLE_OF_ATTACK:      nParamDV[iDV] = 1; break;
        case SCALE:                nParamDV[iDV] = 0; break;
        case TRANSLATION:          nParamDV[iDV] = 3; break;
        case ROTATION:             nParamDV[iDV] = 6; break;
        case NACA_4DIGITS:         nParamDV[iDV] = 3; break;
        case PARABOLIC:            nParamDV[iDV] = 2; break;
        case AIRFOIL:              nParamDV[iDV] = 2; break;
        case FFD_CONTROL_POINT:    nParamDV[iDV] = 7; break;
        case FFD_NACELLE:          nParamDV[iDV] = 6; break;
        case FFD_GULL:             nParamDV[iDV] = 2; break;
        case FFD_TWIST:            nParamDV[iDV] = 8; break;
        case FFD_ROTATION:         nParamDV[iDV] = 7; break;
        case FFD_CONTROL_SURFACE:  nParamDV[iDV] = 7; break;
        case FFD_CAMBER:           nParamDV[iDV] = 3; break;
        case FFD_THICKNESS:        nParamDV[iDV] = 3; break;
        case FFD_ANGLE_OF_ATTACK:  nParamDV[iDV] = 2; break;
        case SURFACE_FILE:         nParamDV[iDV] = 0; break;
        case DV_EFIELD:            nParamDV[iDV] = 2; break;
        case DV_YOUNG:             nParamDV[iDV] = 0; break;
        case DV_POISSON:           nParamDV[iDV] = 0; break;
        case DV_RHO:               nParamDV[iDV] = 0; break;
        case DV_RHO_DL:            nParamDV[iDV] = 0; break;
        case SCALE_GRID:           nParamDV[iDV] = 0; break;
        case TRANSLATE_GRID:       nParamDV[iDV] = 3; break;
        case ROTATE_GRID:          nParamDV[iDV] = 6; break;
        default : {
          string newstring;
          newstring.append(this->name);
          newstring.append(": undefined design variable type found in configuration file.");
          return newstring;
        }
      }
      totalnParamDV += nParamDV[iDV];
    }

    if (totalnParamDV > option_value.size()){
      SU2_MPI::Error("Wrong number of arguments for DV_PARAM!", CURRENT_FUNCTION);
    }

    for (unsigned short iDV = 0; iDV < this->nDV; iDV++) {
      for (unsigned short iParamDV = 0; iParamDV < nParamDV[iDV]; iParamDV++) {

        ss << option_value[i] << " ";

        if ((iParamDV == 0) &&
            ((this->design_variable[iDV] == NO_DEFORMATION) ||
             (this->design_variable[iDV] == FFD_SETTING) ||
             (this->design_variable[iDV] == FFD_ANGLE_OF_ATTACK)||
             (this->design_variable[iDV] == FFD_CONTROL_POINT_2D) ||
             (this->design_variable[iDV] == FFD_CAMBER_2D) ||
             (this->design_variable[iDV] == FFD_TWIST_2D) ||
             (this->design_variable[iDV] == FFD_THICKNESS_2D) ||
             (this->design_variable[iDV] == FFD_CONTROL_POINT) ||
             (this->design_variable[iDV] == FFD_NACELLE) ||
             (this->design_variable[iDV] == FFD_GULL) ||
             (this->design_variable[iDV] == FFD_TWIST) ||
             (this->design_variable[iDV] == FFD_ROTATION) ||
             (this->design_variable[iDV] == FFD_CONTROL_SURFACE) ||
             (this->design_variable[iDV] == FFD_CAMBER) ||
             (this->design_variable[iDV] == FFD_THICKNESS))) {
              ss >> this->FFDTag[iDV];
              this->paramDV[iDV][iParamDV] = 0;
            }
        else
          ss >> this->paramDV[iDV][iParamDV];

        i++;
      }
      if (iDV < (this->nDV-1)) {
        if (option_value[i].compare(";") != 0) {
          string newstring;
          newstring.append(this->name);
          newstring.append(": a design variable in the configuration file has the wrong number of parameters");
          return newstring;
        }
        i++;
      }
    }

    // Need to return something...
    return "";
  }

  void SetDefault() override {
    this->nDV = 0;
    this->paramDV = nullptr;
    this->FFDTag = nullptr;
    // Don't mess with the Design_Variable because it's an input, not modified
  }
};

class COptionDVValue : public COptionBase {
  string name; // identifier for the option
  unsigned short* & nDV_Value;
  su2double ** & valueDV;
  unsigned short & nDV;
  su2double ** & paramDV;
  unsigned short* & design_variable;

public:
  COptionDVValue(string option_field_name, unsigned short* & nDVValue_field, su2double** & valueDV_field, unsigned short & nDV_field,  su2double** & paramDV_field, unsigned short * & design_variable_field) : nDV_Value(nDVValue_field), valueDV(valueDV_field), nDV(nDV_field), paramDV(paramDV_field), design_variable(design_variable_field) {
    this->name = option_field_name;
  }

  ~COptionDVValue() override {};

  string SetValue(vector<string> option_value) override {
    COptionBase::SetValue(option_value);
    if ((option_value.size() == 1) && (option_value[0].compare("NONE") == 0)) {
      this->nDV_Value = nullptr;
      return "";
    }

    if ( (this->nDV > 0) && (this->design_variable == nullptr) ) {
      string newstring;
      newstring.append(this->name);
      newstring.append(": Design_Variable array has not been allocated. Check that DV_KIND appears before DV_VALUE in configuration file.");
      return newstring;
    }
    if ( (this->nDV > 0) && (this->paramDV == nullptr) ) {
      string newstring;
      newstring.append(this->name);
      newstring.append(": Design_Parameter array has not been allocated. Check that DV_PARAM appears before DV_VALUE in configuration file.");
      return newstring;
    }

    this->valueDV = new su2double*[this->nDV];
    this->nDV_Value = new unsigned short[this->nDV];

    for (unsigned short iDV = 0; iDV < this->nDV; iDV++) {
      this->valueDV[iDV] = new su2double[3];
    }

    unsigned short nValueDV = 0;
    unsigned short totalnValueDV = 0;
    stringstream ss;
    unsigned int i = 0;
    for (unsigned short iDV = 0; iDV < this->nDV; iDV++) {
      switch (this->design_variable[iDV]) {
        case FFD_CONTROL_POINT:
          if((this->paramDV[iDV][4] == 0) &&
             (this->paramDV[iDV][5] == 0) &&
             (this->paramDV[iDV][6] == 0)) {
            nValueDV = 3;
          } else {
            nValueDV = 1;
          }
          break;
        case FFD_CONTROL_POINT_2D:
          if((this->paramDV[iDV][3] == 0) &&
             (this->paramDV[iDV][4] == 0)) {
            nValueDV = 2;
          } else {
            nValueDV = 1;
          }
          break;
        default :
          nValueDV = 1;
      }

      this->nDV_Value[iDV] = nValueDV;

      totalnValueDV += nValueDV;

      for (unsigned short iValueDV = 0; iValueDV < nValueDV; iValueDV++) {

        if (i >= option_value.size()) {
          string newstring;
          newstring.append(this->name);
          newstring.append(": DV_VALUE does not contain enough entries to match DV_KIND or DV_PARAM.");
          return newstring;
        }

        ss << option_value[i] << " ";

        ss >> this->valueDV[iDV][iValueDV];

        i++;
      }
    }

    if (i != totalnValueDV) {
      string newstring;
      newstring.append(this->name);
      newstring.append(": a design variable in the configuration file has the wrong number of values");
      return newstring;
    }

    // Need to return something...
    return "";
  }

  void SetDefault() override {
    this->nDV_Value = nullptr;
    this->valueDV = nullptr;
    // Don't mess with the Design_Variable because it's an input, not modified
  }
};

class COptionFFDDef : public COptionBase {
  string name;
  unsigned short & nFFD;
  su2double ** & CoordFFD;
  string * & FFDTag;

public:
  COptionFFDDef(string option_field_name, unsigned short & nFFD_field, su2double** & coordFFD_field, string* & FFDTag_field) : nFFD(nFFD_field), CoordFFD(coordFFD_field), FFDTag(FFDTag_field) {
    this->name = option_field_name;
  }

  ~COptionFFDDef() override {};

  string SetValue(vector<string> option_value) override {
    COptionBase::SetValue(option_value);
    if ((option_value.size() == 1) && (option_value[0].compare("NONE") == 0)) {
      this->nFFD = 0;
      return "";
    }

    // Cannot have ; at the beginning or the end
    if (option_value[0].compare(";") == 0) {
      string newstring;
      newstring.append(this->name);
      newstring.append(": may not have beginning semicolon");
      return newstring;
    }
    if (option_value[option_value.size()-1].compare(";") == 0) {
      string newstring;
      newstring.append(this->name);
      newstring.append(": may not have ending semicolon");
      return newstring;
    }


    // use the ";" token to determine the number of design variables
    // This works because semicolon is not one of the delimiters in tokenize string
    this->nFFD = 0;
    for (unsigned int i = 0; i < static_cast<unsigned int>(option_value.size()); i++) {
      if (option_value[i].compare(";") == 0) {
        this->nFFD++;
      }
    }

    // One more design variable than semicolon
    this->nFFD++;

    this->CoordFFD = new su2double*[this->nFFD];
    for (unsigned short iFFD = 0; iFFD < this->nFFD; iFFD++) {
      this->CoordFFD[iFFD] = new su2double[25];
    }

    this->FFDTag = new string[this->nFFD];

    unsigned short nCoordFFD = 0;
    stringstream ss;
    unsigned int i = 0;

    for (unsigned short iFFD = 0; iFFD < this->nFFD; iFFD++) {

      nCoordFFD = 25;

      for (unsigned short iCoordFFD = 0; iCoordFFD < nCoordFFD; iCoordFFD++) {

        ss << option_value[i] << " ";

        if (iCoordFFD == 0) ss >> this->FFDTag[iFFD];
        else ss >> this->CoordFFD[iFFD][iCoordFFD-1];

        i++;
      }

      if (iFFD < (this->nFFD-1)) {
        if (option_value[i].compare(";") != 0) {
          string newstring;
          newstring.append(this->name);
          newstring.append(": a FFD box in the configuration file has the wrong number of parameters");
          return newstring;
        }
        i++;
      }

    }

    // Need to return something...
    return "";
  }

  void SetDefault() override {
    this->nFFD = 0;
    this->CoordFFD = nullptr;
    this->FFDTag = nullptr;
  }

};

class COptionFFDDegree : public COptionBase {
  string name;
  unsigned short & nFFD;
  unsigned short ** & DegreeFFD;

public:
  COptionFFDDegree(string option_field_name, unsigned short & nFFD_field, unsigned short** & degreeFFD_field) : nFFD(nFFD_field), DegreeFFD(degreeFFD_field) {
    this->name = option_field_name;
  }

  ~COptionFFDDegree() override {};

  string SetValue(vector<string> option_value) override {
    COptionBase::SetValue(option_value);
    if ((option_value.size() == 1) && (option_value[0].compare("NONE") == 0)) {
      this->nFFD = 0;
      return "";
    }

    // Cannot have ; at the beginning or the end
    if (option_value[0].compare(";") == 0) {
      string newstring;
      newstring.append(this->name);
      newstring.append(": may not have beginning semicolon");
      return newstring;
    }
    if (option_value[option_value.size()-1].compare(";") == 0) {
      string newstring;
      newstring.append(this->name);
      newstring.append(": may not have ending semicolon");
      return newstring;
    }


    // use the ";" token to determine the number of design variables
    // This works because semicolon is not one of the delimiters in tokenize string
    this->nFFD = 0;
    for (unsigned int i = 0; i < static_cast<unsigned int>(option_value.size()); i++) {
      if (option_value[i].compare(";") == 0) {
        this->nFFD++;
      }
    }

    // One more design variable than semicolon
    this->nFFD++;

    this->DegreeFFD = new unsigned short*[this->nFFD];
    for (unsigned short iFFD = 0; iFFD < this->nFFD; iFFD++) {
      this->DegreeFFD[iFFD] = new unsigned short[3];
    }

    unsigned short nDegreeFFD = 0;
    stringstream ss;
    unsigned int i = 0;

    for (unsigned short iFFD = 0; iFFD < this->nFFD; iFFD++) {

      nDegreeFFD = 3;

      for (unsigned short iDegreeFFD = 0; iDegreeFFD < nDegreeFFD; iDegreeFFD++) {
        ss << option_value[i] << " ";
        ss >> this->DegreeFFD[iFFD][iDegreeFFD];
        i++;
      }

      if (iFFD < (this->nFFD-1)) {
        if (option_value[i].compare(";") != 0) {
          string newstring;
          newstring.append(this->name);
          newstring.append(": a FFD degree in the configuration file has the wrong number of parameters");
          return newstring;
        }
        i++;
      }

    }

    // Need to return something...
    return "";
  }

  void SetDefault() override {
    this->nFFD = 0;
    this->DegreeFFD = nullptr;
  }

};

// Class where the option is represented by (String, su2double, string, su2double, ...)
class COptionStringDoubleList : public COptionBase {
  string name; // identifier for the option
  unsigned short & size; // how many strings are there (same as number of su2doubles)
