/*!
 * \file option_structure.inl
 * \brief Template derived classes from COption, defined here as we
 *        only include them where needed to reduce compilation time.
 * \author J. Hicken, B. Tracey
 * \version 7.0.3 "Blackbird"
 *
 * SU2 Project Website: https://su2code.github.io
 *
 * The SU2 Project is maintained by the SU2 Foundation
 * (http://su2foundation.org)
 *
 * Copyright 2012-2020, SU2 Contributors (cf. AUTHORS.md)
 *
 * SU2 is free software; you can redistribute it and/or
 * modify it under the terms of the GNU Lesser General Public
 * License as published by the Free Software Foundation; either
 * version 2.1 of the License, or (at your option) any later version.
 *
 * SU2 is distributed in the hope that it will be useful,
 * but WITHOUT ANY WARRANTY; without even the implied warranty of
 * MERCHANTABILITY or FITNESS FOR A PARTICULAR PURPOSE. See the GNU
 * Lesser General Public License for more details.
 *
 * You should have received a copy of the GNU Lesser General Public
 * License along with SU2. If not, see <http://www.gnu.org/licenses/>.
 */

template <class Tenum>
class COptionEnum : public COptionBase {

  map<string, Tenum> m;
  unsigned short & field; // Reference to the feildname
  Tenum def; // Default value
  string name; // identifier for the option

public:
  COptionEnum(string option_field_name, const map<string, Tenum> m, unsigned short & option_field, Tenum default_value) : field(option_field) {
    this->m = m;
    this->def = default_value;
    this->name = option_field_name;
  }

  ~COptionEnum() {};
  string SetValue(vector<string> option_value) {
    COptionBase::SetValue(option_value);
    // Check if there is more than one string
    string out = optionCheckMultipleValues(option_value, "enum", this->name);
    if (out.compare("") != 0) {
      return out;
    }

    // Check to see if the enum value is in the map
    if (this->m.find(option_value[0]) == m.end()) {
      string str;
      str.append(this->name);
      str.append(": invalid option value ");
      str.append(option_value[0]);
      str.append(". Check current SU2 options in config_template.cfg.");
      return str;
    }
    // If it is there, set the option value
    Tenum val = this->m[option_value[0]];
    this->field = val;
    return "";
  }

  void SetDefault() {
    this->field = this->def;
  }
};

class COptionDouble : public COptionBase {
  su2double & field; // Reference to the fieldname
  su2double def; // Default value
  string name; // identifier for the option

public:
  COptionDouble(string option_field_name, su2double & option_field, su2double default_value) : field(option_field) {
    this->def = default_value;
    this->name = option_field_name;
  }

  ~COptionDouble() {};
  string SetValue(vector<string> option_value) {
    COptionBase::SetValue(option_value);
    // check if there is more than one value
    string out = optionCheckMultipleValues(option_value, "su2double", this->name);
    if (out.compare("") != 0) {
      return out;
    }
    istringstream is(option_value[0]);
    su2double val;
    if (is >> val) {
      this->field = val;
      return "";
    }
    return badValue(option_value, "su2double", this->name);
  }
  void SetDefault() {
    this->field = this->def;
  }
};

class COptionString : public COptionBase {
  string & field; // Reference to the fieldname
  string def; // Default value
  string name; // identifier for the option

public:
  COptionString(string option_field_name, string & option_field, string default_value) : field(option_field) {
    this->def = default_value;
    this->name = option_field_name;
  }

  ~COptionString() {};
  string SetValue(vector<string> option_value) {
    COptionBase::SetValue(option_value);
    // check if there is more than one value
    string out = optionCheckMultipleValues(option_value, "su2double", this->name);
    if (out.compare("") != 0) {
      return out;
    }
    this->field.assign(option_value[0]);
    return "";
  }
  void SetDefault() {
    this->field = this->def;
  }
};

class COptionInt : public COptionBase {
  int & field; // Reference to the feildname
  int def; // Default value
  string name; // identifier for the option

public:
  COptionInt(string option_field_name, int & option_field, int default_value) : field(option_field) {
    this->def = default_value;
    this->name = option_field_name;
  }

  ~COptionInt() {};
  string SetValue(vector<string> option_value) {
    COptionBase::SetValue(option_value);
    string out = optionCheckMultipleValues(option_value, "int", this->name);
    if (out.compare("") != 0) {
      return out;
    }
    istringstream is(option_value[0]);
    int val;
    if (is >> val) {
      this->field = val;
      return "";
    }
    return badValue(option_value, "int", this->name);
  }
  void SetDefault() {
    this->field = this->def;
  }
};

class COptionULong : public COptionBase {
  unsigned long & field; // Reference to the feildname
  unsigned long def; // Default value
  string name; // identifier for the option

public:
  COptionULong(string option_field_name, unsigned long & option_field, unsigned long default_value) : field(option_field) {
    this->def = default_value;
    this->name = option_field_name;
  }

  ~COptionULong() {};
  string SetValue(vector<string> option_value) {
    COptionBase::SetValue(option_value);
    string out = optionCheckMultipleValues(option_value, "unsigned long", this->name);
    if (out.compare("") != 0) {
      return out;
    }
    istringstream is(option_value[0]);
    unsigned long val;
    if (is >> val) {
      this->field = val;
      return "";
    }
    return badValue(option_value, "unsigned long", this->name);
  }
  void SetDefault() {
    this->field = this->def;
  }
};

class COptionUShort : public COptionBase {
  unsigned short & field; // Reference to the feildname
  unsigned short def; // Default value
  string name; // identifier for the option

public:
  COptionUShort(string option_field_name, unsigned short & option_field, unsigned short default_value) : field(option_field) {
    this->def = default_value;
    this->name = option_field_name;
  }

  ~COptionUShort() {};
  string SetValue(vector<string> option_value) {
    COptionBase::SetValue(option_value);
    string out = optionCheckMultipleValues(option_value, "unsigned short", this->name);
    if (out.compare("") != 0) {
      return out;
    }
    istringstream is(option_value[0]);
    unsigned short val;
    if (is >> val) {
      this->field = val;
      return "";
    }
    return badValue(option_value, "unsigned short", this->name);
  }
  void SetDefault() {
    this->field = this->def;
  }
};

class COptionLong : public COptionBase {
  long & field; // Reference to the feildname
  long def; // Default value
  string name; // identifier for the option

public:
  COptionLong(string option_field_name, long & option_field, long default_value) : field(option_field) {
    this->def = default_value;
    this->name = option_field_name;
  }

  ~COptionLong() {};
  string SetValue(vector<string> option_value) {
    COptionBase::SetValue(option_value);
    string out = optionCheckMultipleValues(option_value, "long", this->name);
    if (out.compare("") != 0) {
      return out;
    }
    istringstream is(option_value[0]);
    long val;
    if (is >> val) {
      this->field = val;
      return "";
    }
    return badValue(option_value, "long", this->name);
  }
  void SetDefault() {
    this->field = this->def;
  }
};

class COptionBool : public COptionBase {
  bool & field; // Reference to the feildname
  bool def; // Default value
  string name; // identifier for the option

public:
  COptionBool(string option_field_name, bool & option_field, bool default_value) : field(option_field) {
    this->def = default_value;
    this->name = option_field_name;
  }

  ~COptionBool() {};
  string SetValue(vector<string> option_value) {
    COptionBase::SetValue(option_value);
    // check if there is more than one value
    string out = optionCheckMultipleValues(option_value, "bool", this->name);
    if (out.compare("") != 0) {
      return out;
    }
    if (option_value[0].compare("YES") == 0) {
      this->field = true;
      return "";
    }
    if (option_value[0].compare("NO") == 0) {
      this->field = false;
      return "";
    }
    return badValue(option_value, "bool", this->name);
  }
  void SetDefault() {
    this->field = this->def;
  }
};

template <class Tenum>
class COptionEnumList : public COptionBase {

  map<string, Tenum> m;
  unsigned short * & field; // Reference to the feildname
  string name; // identifier for the option
  unsigned short & size;

public:
  COptionEnumList(string option_field_name, const map<string, Tenum> m, unsigned short * & option_field, unsigned short & list_size) : field(option_field) , size(list_size) {
    this->m = m;
    this->name = option_field_name;
  }

  ~COptionEnumList() {};
  string SetValue(vector<string> option_value) {
    COptionBase::SetValue(option_value);
    if (option_value.size() == 1 && option_value[0].compare("NONE") == 0) {
      this->size = 0;
      return "";
    }
    // size is the length of the option list
    this->size = option_value.size();
    unsigned short * enums = new unsigned short[size];
    for (int i  = 0; i < this->size; i++) {
      // Check to see if the enum value is in the map
      if (this->m.find(option_value[i]) == m.end()) {
        string str;
        str.append(this->name);
        str.append(": invalid option value ");
        str.append(option_value[i]);
        str.append(". Check current SU2 options in config_template.cfg.");
        return str;
      }
      // If it is there, set the option value
      enums[i] = this->m[option_value[i]];
    }
    this->field = enums;
    return "";
  }

  void SetDefault() {
    // No default to set
    size = 0;
  }
};

class COptionDoubleArray : public COptionBase {
  su2double * & field; // Reference to the feildname
  string name; // identifier for the option
  const int size;
  su2double * def;
  su2double * vals;
  su2double * default_value;

public:
  COptionDoubleArray(string option_field_name, const int list_size, su2double * & option_field, su2double * default_value) : field(option_field), size(list_size) {
    this->name = option_field_name;
    this->default_value = default_value;
    def  = NULL;
    vals = NULL;
  }

  ~COptionDoubleArray() {
     if(def  != NULL) delete [] def;
     if(vals != NULL) delete [] vals;
  };
  string SetValue(vector<string> option_value) {
    COptionBase::SetValue(option_value);
    // Check that the size is correct
    if (option_value.size() != (unsigned long)this->size) {
      string newstring;
      newstring.append(this->name);
      newstring.append(": wrong number of arguments: ");
      stringstream ss;
      ss << this->size;
      newstring.append(ss.str());
      newstring.append(" expected, ");
      stringstream ss2;
      ss2 << option_value.size();
      newstring.append(ss2.str());
      newstring.append(" found");
      return newstring;
    }
    vals = new su2double[this->size];
    for (int i  = 0; i < this->size; i++) {
      istringstream is(option_value[i]);
      su2double val;
      if (!(is >> val)) {
        delete [] vals;
        return badValue(option_value, "su2double array", this->name);
      }
      vals[i] = val;
    }
    this->field = vals;
    return "";
  }

  void SetDefault() {
    def = new su2double [size];
    for (int i = 0; i < size; i++) {
      def[i] = default_value[i];
    }
    this->field = def;
  }
};

class COptionDoubleList : public COptionBase {
  su2double * & field; // Reference to the feildname
  string name; // identifier for the option
  unsigned short & size;

public:
  COptionDoubleList(string option_field_name, unsigned short & list_size, su2double * & option_field) : field(option_field), size(list_size) {
    this->name = option_field_name;
  }

  ~COptionDoubleList() {};
  string SetValue(vector<string> option_value) {
    COptionBase::SetValue(option_value);
    // The size is the length of option_value
    unsigned short option_size = option_value.size();
    if (option_size == 1 && option_value[0].compare("NONE") == 0) {
      // No options
      this->size = 0;
      return "";
    }

    this->size = option_size;

    // Parse all of the options
    su2double * vals = new su2double[option_size];
    for (unsigned long i  = 0; i < option_size; i++) {
      istringstream is(option_value[i]);
      su2double val;
      if (!(is >> val)) {
        delete [] vals;
        return badValue(option_value, "su2double list", this->name);
      }
      vals[i] = val;
    }
    this->field = vals;
    return "";
  }

  void SetDefault() {
    this->size = 0; // There is no default value for list
  }
};

class COptionShortList : public COptionBase {
  short * & field; // Reference to the feildname
  string name; // identifier for the option
  unsigned short & size;

public:
  COptionShortList(string option_field_name, unsigned short & list_size,  short * & option_field) : field(option_field), size(list_size) {
    this->name = option_field_name;
  }

  ~COptionShortList() {};
  string SetValue(vector<string> option_value) {
    COptionBase::SetValue(option_value);
    // The size is the length of option_value
    unsigned short option_size = option_value.size();
    if (option_size == 1 && option_value[0].compare("NONE") == 0) {
      // No options
      this->size = 0;
      return "";
    }
    this->size = option_size;

    // Parse all of the options
    short * vals = new  short[option_size];
    for (unsigned long i  = 0; i < option_size; i++) {
      istringstream is(option_value[i]);
      unsigned short val;
      if (!(is >> val)) {
        delete [] vals;
        return badValue(option_value, "short", this->name);
      }
      vals[i] = val;
    }
    this->field = vals;
    return "";
  }

  void SetDefault() {
    this->size = 0; // There is no default value for list
  }
};

class COptionUShortList : public COptionBase {
  unsigned short * & field; // Reference to the feildname
  string name; // identifier for the option
  unsigned short & size;

public:
  COptionUShortList(string option_field_name, unsigned short & list_size, unsigned short * & option_field) : field(option_field), size(list_size) {
    this->name = option_field_name;
  }

  ~COptionUShortList() {};
  string SetValue(vector<string> option_value) {
    COptionBase::SetValue(option_value);
    // The size is the length of option_value
    unsigned short option_size = option_value.size();
    if (option_size == 1 && option_value[0].compare("NONE") == 0) {
      // No options
      this->size = 0;
      return "";
    }
    this->size = option_size;

    // Parse all of the options
    unsigned short * vals = new unsigned short[option_size];
    for (unsigned long i  = 0; i < option_size; i++) {
      istringstream is(option_value[i]);
      unsigned short val;
      if (!(is >> val)) {
        delete [] vals;
        return badValue(option_value, "unsigned short", this->name);
      }
      vals[i] = val;
    }
    this->field = vals;
    return "";
  }

  void SetDefault() {
    this->size = 0; // There is no default value for list
  }
};

class COptionStringList : public COptionBase {
  string * & field; // Reference to the feildname
  string name; // identifier for the option
  unsigned short & size;

public:
  COptionStringList(string option_field_name, unsigned short & list_size, string * & option_field) : field(option_field), size(list_size) {
    this->name = option_field_name;
  }

  ~COptionStringList() {};
  string SetValue(vector<string> option_value) {
    COptionBase::SetValue(option_value);
    // The size is the length of option_value
    unsigned short option_size = option_value.size();
    if (option_size == 1 && option_value[0].compare("NONE") == 0) {
      this->size = 0;
      return "";
    }
    this->size = option_size;

    // Parse all of the options
    string * vals = new string[option_size];
    for (unsigned long i  = 0; i < option_size; i++) {
      vals[i].assign(option_value[i]);
    }
    this->field = vals;
    return "";
  }

  void SetDefault() {
    this->size = 0; // There is no default value for list
  }
};

class COptionConvect : public COptionBase {
  string name; // identifier for the option
  unsigned short & space;
  unsigned short & centered;
  unsigned short & upwind;

public:
  COptionConvect(string option_field_name, unsigned short & space_field, unsigned short & centered_field, unsigned short & upwind_field)
    : name(option_field_name), space(space_field), centered(centered_field), upwind(upwind_field) { }

  string SetValue(vector<string> option_value) {
    COptionBase::SetValue(option_value);

    string out = optionCheckMultipleValues(option_value, "unsigned short", this->name);
    if (out.compare("") != 0) {
      return out;
    }

    if (Centered_Map.count(option_value[0])) {
      this->space = Space_Map.find("SPACE_CENTERED")->second;
      this->centered = Centered_Map.find(option_value[0])->second;
      this->upwind = NO_UPWIND;
      return "";
    }
    if (Upwind_Map.count(option_value[0])) {
      this->space = Space_Map.find("SPACE_UPWIND")->second;
      this->upwind = Upwind_Map.find(option_value[0])->second;
      this->centered = NO_CENTERED;
      return "";
    }
    // Make them defined in case something weird happens
    SetDefault();
    return badValue(option_value, "convect", this->name);

  }

  void SetDefault() {
    this->centered = NO_CENTERED;
    this->upwind = NO_UPWIND;
    this->space = NO_CONVECTIVE;
  }
};

class COptionFEMConvect : public COptionBase{
  string name; // identifier for the option
  unsigned short & space;
  unsigned short & fem;

public:
  COptionFEMConvect(string option_field_name, unsigned short & space_field, unsigned short & fem_field) : space(space_field), fem(fem_field) {
    this->name = option_field_name;
  }

  ~COptionFEMConvect() {};
  string SetValue(vector<string> option_value) {
    COptionBase::SetValue(option_value);

    string out = optionCheckMultipleValues(option_value, "unsigned short", this->name);
    if (out.compare("") != 0) {
      return out;
    }

    if (FEM_Map.count(option_value[0])) {
      this->space = Space_Map.find("FINITE_ELEMENT")->second;
      this->fem = FEM_Map.find(option_value[0])->second;
      return "";
    }

    // Make them defined in case something weird happens
    this->fem = NO_FEM;
    return badValue(option_value, "convect", this->name);

  }

  void SetDefault() {
    this->fem = NO_FEM;
  }
};

class COptionMathProblem : public COptionBase {
  string name; // identifier for the option
  bool & cont_adjoint;
  bool cont_adjoint_def;
  bool & disc_adjoint;
  bool disc_adjoint_def;
  bool & restart;
  bool restart_def;

public:
  COptionMathProblem(string option_field_name, bool & cont_adjoint_field, bool cont_adjoint_default, bool & disc_adjoint_field, bool disc_adjoint_default, bool & restart_field, bool restart_default) : cont_adjoint(cont_adjoint_field), disc_adjoint(disc_adjoint_field), restart(restart_field) {
    this->name = option_field_name;
    this->cont_adjoint_def = cont_adjoint_default;
    this->disc_adjoint_def = disc_adjoint_default;
    this->restart_def = restart_default;
  }

  ~COptionMathProblem() {};
  string SetValue(vector<string> option_value) {
    COptionBase::SetValue(option_value);
    string out = optionCheckMultipleValues(option_value, "unsigned short", this->name);
    if (out.compare("") != 0) {
      return out;
    }
    if (option_value[0] == "ADJOINT") {
      return badValue(option_value, "math problem (try CONTINUOUS_ADJOINT)", this->name);
    }
    if (Math_Problem_Map.find(option_value[0]) == Math_Problem_Map.end()) {
      return badValue(option_value, "math problem", this->name);
    }
    if (option_value[0] == "DIRECT") {
      this->cont_adjoint = false;
      this->disc_adjoint = false;
      this->restart = false;
      return "";
    }
    if (option_value[0] == "CONTINUOUS_ADJOINT") {
      this->cont_adjoint= true;
      this->disc_adjoint = false;
      this->restart= true;
      return "";
    }
    if (option_value[0] == "DISCRETE_ADJOINT") {
      this->disc_adjoint = true;
      this->cont_adjoint= false;
      this->restart = true;
      return "";
    }
    return "option in math problem map not considered in constructor";
  }

  void SetDefault() {
    this->cont_adjoint = this->cont_adjoint_def;
    this->disc_adjoint = this->disc_adjoint_def;
    this->restart = this->restart_def;
  }

};

class COptionDVParam : public COptionBase {
  string name; // identifier for the option
  unsigned short & nDV;
  su2double ** & paramDV;
  string * & FFDTag;
  unsigned short* & design_variable;

public:
  COptionDVParam(string option_field_name, unsigned short & nDV_field, su2double** & paramDV_field, string* & FFDTag_field, unsigned short * & design_variable_field) : nDV(nDV_field), paramDV(paramDV_field), FFDTag(FFDTag_field), design_variable(design_variable_field) {
    this->name = option_field_name;
  }

  ~COptionDVParam() {};

  string SetValue(vector<string> option_value) {
    COptionBase::SetValue(option_value);
    if ((option_value.size() == 1) && (option_value[0].compare("NONE") == 0)) {
      this->nDV = 0;
      return "";
    }

    // Cannot have ; at the beginning or the end
    if (option_value[0].compare(";") == 0) {
      string newstring;
      newstring.append(this->name);
      newstring.append(": may not have beginning semicolon");
      return newstring;
    }
    if (option_value[option_value.size()-1].compare(";") == 0) {
      string newstring;
      newstring.append(this->name);
      newstring.append(": may not have ending semicolon");
      return newstring;
    }


    // use the ";" token to determine the number of design variables
    // This works because semicolon is not one of the delimiters in tokenize string
    this->nDV = 0;
    //unsigned int num_semi = 0;
    for (unsigned int i = 0; i < static_cast<unsigned int>(option_value.size()); i++) {
      if (option_value[i].compare(";") == 0) {
        this->nDV++;
        //        num_semi++;
      }
    }

    // One more design variable than semicolon
    this->nDV++;

    if ( (this->nDV > 0) && (this->design_variable == NULL) ) {
      string newstring;
      newstring.append(this->name);
      newstring.append(": Design_Variable array has not been allocated. Check that DV_KIND appears before DV_PARAM in configuration file.");
      return newstring;
    }

    this->paramDV = new su2double*[this->nDV];
    for (unsigned short iDV = 0; iDV < this->nDV; iDV++) {
      this->paramDV[iDV] = new su2double[MAX_PARAMETERS];
    }

    this->FFDTag = new string[this->nDV];

   vector<unsigned short> nParamDV(nDV, 0);
   unsigned short totalnParamDV = 0;
   stringstream ss;
   unsigned int i = 0;

    for (unsigned short iDV = 0; iDV < this->nDV; iDV++) {
      switch (this->design_variable[iDV]) {
        case NO_DEFORMATION:       nParamDV[iDV] = 0; break;
        case FFD_SETTING:          nParamDV[iDV] = 0; break;
        case FFD_CONTROL_POINT_2D: nParamDV[iDV] = 5; break;
        case FFD_CAMBER_2D:        nParamDV[iDV] = 2; break;
        case FFD_THICKNESS_2D:     nParamDV[iDV] = 2; break;
        case FFD_TWIST_2D:         nParamDV[iDV] = 3; break;
        case HICKS_HENNE:          nParamDV[iDV] = 2; break;
        case SURFACE_BUMP:         nParamDV[iDV] = 3; break;
        case CST:                  nParamDV[iDV] = 3; break;
        case ANGLE_OF_ATTACK:      nParamDV[iDV] = 1; break;
        case SCALE:                nParamDV[iDV] = 0; break;
        case TRANSLATION:          nParamDV[iDV] = 3; break;
        case ROTATION:             nParamDV[iDV] = 6; break;
        case NACA_4DIGITS:         nParamDV[iDV] = 3; break;
        case PARABOLIC:            nParamDV[iDV] = 2; break;
        case AIRFOIL:              nParamDV[iDV] = 2; break;
        case FFD_CONTROL_POINT:    nParamDV[iDV] = 7; break;
        case FFD_NACELLE:          nParamDV[iDV] = 6; break;
        case FFD_GULL:             nParamDV[iDV] = 2; break;
        case FFD_TWIST:            nParamDV[iDV] = 8; break;
        case FFD_ROTATION:         nParamDV[iDV] = 7; break;
        case FFD_CONTROL_SURFACE:  nParamDV[iDV] = 7; break;
        case FFD_CAMBER:           nParamDV[iDV] = 3; break;
        case FFD_THICKNESS:        nParamDV[iDV] = 3; break;
        case FFD_ANGLE_OF_ATTACK:  nParamDV[iDV] = 2; break;
        case SURFACE_FILE:         nParamDV[iDV] = 0; break;
        case DV_EFIELD:            nParamDV[iDV] = 2; break;
        case DV_YOUNG:             nParamDV[iDV] = 0; break;
        case DV_POISSON:           nParamDV[iDV] = 0; break;
        case DV_RHO:               nParamDV[iDV] = 0; break;
        case DV_RHO_DL:            nParamDV[iDV] = 0; break;
        case SCALE_GRID:           nParamDV[iDV] = 0; break;
        case TRANSLATE_GRID:       nParamDV[iDV] = 3; break;
        case ROTATE_GRID:          nParamDV[iDV] = 6; break;
        default : {
          string newstring;
          newstring.append(this->name);
          newstring.append(": undefined design variable type found in configuration file.");
          return newstring;
        }
      }
      totalnParamDV += nParamDV[iDV];
    }

    if (totalnParamDV > option_value.size()){
      SU2_MPI::Error("Wrong number of arguments for DV_PARAM!", CURRENT_FUNCTION);
    }

    for (unsigned short iDV = 0; iDV < this->nDV; iDV++) {
      for (unsigned short iParamDV = 0; iParamDV < nParamDV[iDV]; iParamDV++) {

        ss << option_value[i] << " ";

        if ((iParamDV == 0) &&
            ((this->design_variable[iDV] == NO_DEFORMATION) ||
             (this->design_variable[iDV] == FFD_SETTING) ||
             (this->design_variable[iDV] == FFD_ANGLE_OF_ATTACK)||
             (this->design_variable[iDV] == FFD_CONTROL_POINT_2D) ||
             (this->design_variable[iDV] == FFD_CAMBER_2D) ||
             (this->design_variable[iDV] == FFD_TWIST_2D) ||
             (this->design_variable[iDV] == FFD_THICKNESS_2D) ||
             (this->design_variable[iDV] == FFD_CONTROL_POINT) ||
             (this->design_variable[iDV] == FFD_NACELLE) ||
             (this->design_variable[iDV] == FFD_GULL) ||
             (this->design_variable[iDV] == FFD_TWIST) ||
             (this->design_variable[iDV] == FFD_ROTATION) ||
             (this->design_variable[iDV] == FFD_CONTROL_SURFACE) ||
             (this->design_variable[iDV] == FFD_CAMBER) ||
             (this->design_variable[iDV] == FFD_THICKNESS))) {
              ss >> this->FFDTag[iDV];
              this->paramDV[iDV][iParamDV] = 0;
            }
        else
          ss >> this->paramDV[iDV][iParamDV];

        i++;
      }
      if (iDV < (this->nDV-1)) {
        if (option_value[i].compare(";") != 0) {
          string newstring;
          newstring.append(this->name);
          newstring.append(": a design variable in the configuration file has the wrong number of parameters");
          return newstring;
        }
        i++;
      }
    }

    // Need to return something...
    return "";
  }

  void SetDefault() {
    this->nDV = 0;
    this->paramDV = NULL;
    this->FFDTag = NULL;
    // Don't mess with the Design_Variable because it's an input, not modified
  }
};

class COptionDVValue : public COptionBase {
  string name; // identifier for the option
  unsigned short* & nDV_Value;
  su2double ** & valueDV;
  unsigned short & nDV;
  su2double ** & paramDV;
  unsigned short* & design_variable;

public:
  COptionDVValue(string option_field_name, unsigned short* & nDVValue_field, su2double** & valueDV_field, unsigned short & nDV_field,  su2double** & paramDV_field, unsigned short * & design_variable_field) : nDV_Value(nDVValue_field), valueDV(valueDV_field), nDV(nDV_field), paramDV(paramDV_field), design_variable(design_variable_field) {
    this->name = option_field_name;
  }

  ~COptionDVValue() {};

  string SetValue(vector<string> option_value) {
    COptionBase::SetValue(option_value);
    if ((option_value.size() == 1) && (option_value[0].compare("NONE") == 0)) {
      this->nDV_Value = NULL;
      return "";
    }

    if ( (this->nDV > 0) && (this->design_variable == NULL) ) {
      string newstring;
      newstring.append(this->name);
      newstring.append(": Design_Variable array has not been allocated. Check that DV_KIND appears before DV_VALUE in configuration file.");
      return newstring;
    }
    if ( (this->nDV > 0) && (this->paramDV == NULL) ) {
      string newstring;
      newstring.append(this->name);
      newstring.append(": Design_Parameter array has not been allocated. Check that DV_PARAM appears before DV_VALUE in configuration file.");
      return newstring;
    }

    this->valueDV = new su2double*[this->nDV];
    this->nDV_Value = new unsigned short[this->nDV];

    for (unsigned short iDV = 0; iDV < this->nDV; iDV++) {
      this->valueDV[iDV] = new su2double[3];
    }

    unsigned short nValueDV = 0;
    unsigned short totalnValueDV = 0;
    stringstream ss;
    unsigned int i = 0;
    for (unsigned short iDV = 0; iDV < this->nDV; iDV++) {
      switch (this->design_variable[iDV]) {
        case FFD_CONTROL_POINT:
          if((this->paramDV[iDV][4] == 0) &&
             (this->paramDV[iDV][5] == 0) &&
             (this->paramDV[iDV][6] == 0)) {
            nValueDV = 3;
          } else {
            nValueDV = 1;
          }
          break;
        case FFD_CONTROL_POINT_2D:
          if((this->paramDV[iDV][3] == 0) &&
             (this->paramDV[iDV][4] == 0)) {
            nValueDV = 2;
          } else {
            nValueDV = 1;
          }
          break;
        default :
          nValueDV = 1;
      }

      this->nDV_Value[iDV] = nValueDV;

      totalnValueDV += nValueDV;
