%%%%%%%%%%%%%%%%%%%%%%%%%%%%%%%%%%%%%%%%%%%%%%%%%%%%%%%%%%%%%%%%%%%%%%%%%%%%%%%%
%                                                                              %
% SU2 configuration file                                                       %
% Case description: Actuator Disk - Blade Element Method                       %
% Author: Y Chandukrishna, Josy Poulose Pullockara, T N Venkatesh              %
% Institution: Computational and Theoretical Fluid Dynamics (CTFD),            %
%              CSIR - National Aerospace Laboratories, Bangalore               %
%              Academy of Scientific and Innovative Research, Ghaziabad        %
% Comments :                                                                   %
% Date: 23/09/2023                                                             %
% File Version 8.2.0 "Harrier"                                                 %
%                                                                              %
%%%%%%%%%%%%%%%%%%%%%%%%%%%%%%%%%%%%%%%%%%%%%%%%%%%%%%%%%%%%%%%%%%%%%%%%%%%%%%%%

%----------- DIRECT, ADJOINT, AND LINEARIZED PROBLEM DEFINITION -------------------------%
SOLVER= RANS
KIND_TURB_MODEL= SA
%FREESTREAM_TURBULENCEINTENSITY=0.01
MATH_PROBLEM= DIRECT
RESTART_SOL= YES
SYSTEM_MEASUREMENTS= SI

% -------------------- COMPRESSIBLE FREE-STREAM DEFINITION --------------------%
MACH_NUMBER= 0.11617164
AOA= 0.0
SIDESLIP_ANGLE= 0.0
REYNOLDS_NUMBER= 0.62E6
REYNOLDS_LENGTH= 0.237
FREESTREAM_TEMPERATURE= 295
VISCOSITY_MODEL= CONSTANT_VISCOSITY
MU_CONSTANT= 1.84554E-5
MU_REF= 1.716E-5
MU_T_REF= 273.15
SUTHERLAND_CONSTANT= 110.4

% ---------------------- REFERENCE VALUE DEFINITION ---------------------------%
%
REF_ORIGIN_MOMENT_X = 0.0
REF_ORIGIN_MOMENT_Y = 0.0
REF_ORIGIN_MOMENT_Z = 0.0
REF_LENGTH= 1.0
REF_AREA= 0.04411429
REF_DIMENSIONALIZATION= DIMENSIONAL

% --------------- ENGINE AND ACTUATOR DISK SIMULATION -------------------------%
%
HIGHLITE_AREA= 0.04411429
ENGINE_NU_FACTOR= 0.0

% -------------------- BOUNDARY CONDITION DEFINITION --------------------------%
%
ACTDISK_DOUBLE_SURFACE = YES
ACTDISK_TYPE= BLADE_ELEMENT
ACTDISK_JUMP= DIFFERENCE
MARKER_ACTDISK = ( ACTDISK_IN, ACTDISK_OUT , 0.0, 0.0, 12715.2, 0.0, 0.0, 12715.2)
MARKER_ACTDISK_BEM_CG= ( ACTDISK_IN, ACTDISK_OUT, 0.0, 0.0, 0.0,  0.0, 0.0, 0.0 )
MARKER_ACTDISK_BEM_AXIS= ( ACTDISK_IN, ACTDISK_OUT, 1.0, 0.0, 0.0,  1.0, 0.0, 0.0 )
BEM_PROP_FILENAME = prop_geom_alfclcd_data.txt
BEM_PROP_BLADE_ANGLE = 23.9
BEM_FREQ = 40
MARKER_FAR= ( Farfield )

% ------------------------ SURFACES IDENTIFICATION ----------------------------%
%
MARKER_PLOTTING = ( ACTDISK_IN, ACTDISK_OUT )
MARKER_MONITORING = ( ACTDISK_IN, ACTDISK_OUT )
MARKER_ANALYZE = ( ACTDISK_IN, ACTDISK_OUT )
MARKER_ANALYZE_AVERAGE = MASSFLUX

% ------------- COMMON PARAMETERS DEFINING THE NUMERICAL METHOD ---------------%
%
NUM_METHOD_GRAD= WEIGHTED_LEAST_SQUARES
CFL_NUMBER= 4.0
CFL_ADAPT= NO
OBJECTIVE_FUNCTION= DRAG

% ------------------------ LINEAR SOLVER DEFINITION ---------------------------%
%
LINEAR_SOLVER= FGMRES
LINEAR_SOLVER_PREC= ILU
LINEAR_SOLVER_ERROR= 1E-12
LINEAR_SOLVER_ITER= 3
CONV_CAUCHY_ELEMS= 1000
CONV_CAUCHY_EPS= 1E-10

% -------------------- FLOW NUMERICAL METHOD DEFINITION -----------------------%
%
CONV_NUM_METHOD_FLOW= ROE
MUSCL_FLOW= YES
TIME_DISCRE_FLOW= EULER_IMPLICIT

% -------------------- TURBULENT NUMERICAL METHOD DEFINITION ------------------%
%
CONV_NUM_METHOD_TURB= SCALAR_UPWIND
MUSCL_TURB= NO
SLOPE_LIMITER_TURB= VENKATAKRISHNAN
TIME_DISCRE_TURB= EULER_IMPLICIT

% --------------------------- CONVERGENCE PARAMETERS --------------------------%
%
ITER= 2000
CONV_RESIDUAL_MINVAL= -8
CONV_STARTITER= 10

% ------------------------- INPUT/OUTPUT INFORMATION --------------------------%
%
MESH_FILENAME= actuatordisk_bem.su2
MESH_FORMAT= SU2
MESH_OUT_FILENAME= mesh_out.su2
SOLUTION_FILENAME= actuatordisk_bem.dat
TABULAR_FORMAT= CSV
CONV_FILENAME= history_actuatordisk_bem
OUTPUT_FILES= (RESTART, PARAVIEW, SURFACE_PARAVIEW)
WRT_FORCES_BREAKDOWN= YES
BREAKDOWN_FILENAME= forces_breakdown_actuatordisk_bem.dat
RESTART_FILENAME= restart_flow_actuatordisk_bem.dat
VOLUME_FILENAME= flow_actuatordisk_bem
SURFACE_FILENAME= surface_flow_actuatordisk_bem
OUTPUT_WRT_FREQ= 500
%SCREEN_OUTPUT= (INNER_ITER, WALL_TIME, RMS_DENSITY, RMS_NU_TILDE, NONPHYSICAL_POINTS, LIFT, DRAG)
SCREEN_OUTPUT= (INNER_ITER, RMS_DENSITY, RMS_NU_TILDE, LIFT, DRAG)
HISTORY_OUTPUT= (INNER_ITER, RMS_RES, LIFT, DRAG, AERO_COEFF)
