%%%%%%%%%%%%%%%%%%%%%%%%%%%%%%%%%%%%%%%%%%%%%%%%%%%%%%%%%%%%%%%%%%%%%%%%%%%%%%%%
%                                                                              %
% SU2 configuration file                                                       %
% Case description: NACA0012 detached subsonic unsteady flow                   %
% Author: Steffen Schotthöfer                                                  %
% Institution: TU Kaiserslautern                                               %
% Date: Mar 16, 2017                                                           %
% File Version 8.0.0 "Harrier"                                                 %
%                                                                              %
%%%%%%%%%%%%%%%%%%%%%%%%%%%%%%%%%%%%%%%%%%%%%%%%%%%%%%%%%%%%%%%%%%%%%%%%%%%%%%%%

% ------------ Information about this test case -------------------------------%
%  The test case checks, if the discrete_adjoint.py script works correctly with restart files and 
%  an only adjoint computation. The test case is an unsteady (time-dependent) problem.
%
% ------------- DIRECT, ADJOINT, AND LINEARIZED PROBLEM DEFINITION ------------%
%
SOLVER= RANS
KIND_TURB_MODEL= SA
MATH_PROBLEM= DISCRETE_ADJOINT
OBJECTIVE_FUNCTION=DRAG
RESTART_SOL= YES
RESTART_ITER = 10
%
% ------------------------- UNSTEADY SIMULATION -------------------------------%
%
TIME_DOMAIN = YES
TIME_MARCHING= DUAL_TIME_STEPPING-2ND_ORDER
TIME_STEP= 5e-4
MAX_TIME= 105000
TIME_ITER= 15
INNER_ITER= 2
ITER_AVERAGE_OBJ =  3      
UNST_ADJOINT_ITER = 15
WINDOW_START_ITER = 12 
WINDOW_FUNCTION = HANN_SQUARE
%
% -------------------- COMPRESSIBLE FREE-STREAM DEFINITION --------------------%
%
MACH_NUMBER= 0.3
AOA= 17.0
REF_DIMENSIONALIZATION = DIMENSIONAL
FREESTREAM_TEMPERATURE= 293.0
REYNOLDS_NUMBER= 1e+6
REYNOLDS_LENGTH= 1.0
%
% ---------------------- REFERENCE VALUE DEFINITION ---------------------------%
%
REF_ORIGIN_MOMENT_X = 0.25
REF_ORIGIN_MOMENT_Y = 0.00
REF_ORIGIN_MOMENT_Z = 0.00
REF_LENGTH= 1.0
REF_AREA= 1.0
%
% -------------------- BOUNDARY CONDITION DEFINITION --------------------------%
%
MARKER_HEATFLUX= ( AIRFOIL, 0.0)
MARKER_FAR= ( FARFIELD)
MARKER_INTERNAL= ( FWH1 )
MARKER_PLOTTING= (  AIRFOIL )
MARKER_MONITORING= (AIRFOIL)
%
% ------------- COMMON PARAMETERS DEFINING THE NUMERICAL METHOD ---------------%
%
NUM_METHOD_GRAD= WEIGHTED_LEAST_SQUARES
CFL_NUMBER= 20.0
CFL_ADAPT= NO
LINEAR_SOLVER= FGMRES
LINEAR_SOLVER_ERROR= 1E-6
LINEAR_SOLVER_ITER= 5
%
% -------------------- FLOW NUMERICAL METHOD DEFINITION -----------------------%
%
CONV_NUM_METHOD_FLOW= JST
JST_SENSOR_COEFF= (  0.5, 0.01 )
TIME_DISCRE_FLOW= EULER_IMPLICIT
%
% -------------------- TURBULENT NUMERICAL METHOD DEFINITION ------------------%
%
CONV_NUM_METHOD_TURB= SCALAR_UPWIND
MUSCL_TURB= NO
TIME_DISCRE_TURB= EULER_IMPLICIT
%
% --------------------------- CONVERGENCE PARAMETERS --------------------------%
%
CONV_FIELD= REL_RMS_DENSITY
CONV_RESIDUAL_MINVAL= -9
CONV_STARTITER= 10
CONV_CAUCHY_ELEMS= 10
CONV_CAUCHY_EPS= 1E-5
%
% ------------------------- INPUT/OUTPUT INFORMATION --------------------------%
%
HISTORY_WRT_FREQ_INNER=0
SCREEN_WRT_FREQ_INNER =1
SCREEN_OUTPUT=(INNER_ITER, TIME_ITER, RMS_ADJ_DENSITY, RMS_DENSITY, , REL_RMS_DENSITY,REL_RMS_ADJ_DENSITY, DRAG, TAVG_DRAG)
HISTORY_OUTPUT=(D_AERO_COEFF,D_TAVG_AERO_COEFF)
MESH_FILENAME= naca0012_FFD.su2
MESH_FORMAT= SU2
MESH_OUT_FILENAME= mesh_out.su2
SOLUTION_FILENAME= restart_flow.dat
SOLUTION_ADJ_FILENAME= restart_adj.dat
TABULAR_FORMAT= CSV
CONV_FILENAME= 0_history
RESTART_FILENAME= restart_flow.dat
RESTART_ADJ_FILENAME= restart_adj.dat
VOLUME_FILENAME= flow
SURFACE_FILENAME= surface_flow
OUTPUT_WRT_FREQ= 1
%
% ----------------------- DESIGN VARIABLE PARAMETERS --------------------------%
%
DV_KIND= FFD_CONTROL_POINT_2D
DV_MARKER= ( AIRFOIL )
DV_PARAM= ( AIRFOIL_BOX, 0.0, 0.0, 1.0, 0.0)
DV_VALUE= 0.01
DV_FILENAME= mesh_motion.dat
%
% ------------------------ GRID DEFORMATION PARAMETERS ------------------------%
%
DEFORM_LINEAR_SOLVER_ITER= 1000
DEFORM_NONLINEAR_ITER= 1
DEFORM_CONSOLE_OUTPUT= YES
DEFORM_LINEAR_SOLVER_ERROR =  1E-6
DEFORM_STIFFNESS_TYPE= WALL_DISTANCE
OPT_OBJECTIVE= DRAG * 1.0
OPT_GRADIENT_FACTOR= 0.1
OPT_RELAX_FACTOR= 1
OPT_BOUND_UPPER= 0.05
OPT_BOUND_LOWER= -0.05
OPT_CONSTRAINT= ( LIFT > 0.96 ) * 1.0
DEFINITION_DV= ( 19, 1.0 | AIRFOIL | AIRFOIL_BOX, 0, 0, 1.0, 0.0 ); 
