%%%%%%%%%%%%%%%%%%%%%%%%%%%%%%%%%%%%%%%%%%%%%%%%%%%%%%%%%%%%%%%%%%%%%%%%%%%%%%%%
%                                                                              %
% SU2 configuration file                                                       %
% Case description: Rotating NACA0012 airfoil in transonic, inviscid flow      %
% Author: Thomas D. Economon                                                   %
% Institution: Stanford University                                             %
% Date: 2013.03.06                                                             %
% File Version 8.0.0 "Harrier"                                                 %
%                                                                              %
%%%%%%%%%%%%%%%%%%%%%%%%%%%%%%%%%%%%%%%%%%%%%%%%%%%%%%%%%%%%%%%%%%%%%%%%%%%%%%%%

% ------------- DIRECT, ADJOINT, AND LINEARIZED PROBLEM DEFINITION ------------%
%
SOLVER= EULER
MATH_PROBLEM= DIRECT
RESTART_SOL= NO

% ----------- COMPRESSIBLE AND INCOMPRESSIBLE FREE-STREAM DEFINITION ----------%
%
MACH_NUMBER= 0.0
AOA= 0.0
SIDESLIP_ANGLE= 0.0
FREESTREAM_PRESSURE= 101325.0
FREESTREAM_TEMPERATURE= 288.15

% ---------------------- REFERENCE VALUE DEFINITION ---------------------------%
%
REF_ORIGIN_MOMENT_X = 0.25
REF_ORIGIN_MOMENT_Y = 0.00
REF_ORIGIN_MOMENT_Z = 0.00
REF_LENGTH= 1.0
REF_AREA= 1.0

% ----------------------- DYNAMIC MESH DEFINITION -----------------------------%
%
GRID_MOVEMENT= YES
GRID_MOVEMENT_KIND= ROTATING_FRAME
MACH_MOTION= 0.79578199852934983
MOTION_ORIGIN_X= 0.5
MOTION_ORIGIN_Y= -32.0
MOTION_ORIGIN_Z= 0.0
ROTATION_RATE_X = 0.0
ROTATION_RATE_Y = 0.0
ROTATION_RATE_Z = 8.25

% ----------------------- BOUNDARY CONDITION DEFINITION -----------------------%
%
MARKER_EULER= ( airfoil )
MARKER_FAR= ( farfield )
MARKER_PLOTTING= ( airfoil )
MARKER_MONITORING= ( airfoil )

% ------------- COMMON PARAMETERS TO DEFINE THE NUMERICAL METHOD --------------%
%
NUM_METHOD_GRAD= WEIGHTED_LEAST_SQUARES
CFL_NUMBER= 6.0
CFL_ADAPT= NO
CFL_ADAPT_PARAM= ( 1.5, 0.5, 1.0, 100.0 )
RK_ALPHA_COEFF= ( 0.66667, 0.66667, 1.000000 )
ITER= 99999

% ------------------------ LINEAR SOLVER DEFINITION ---------------------------%
%
LINEAR_SOLVER= FGMRES
LINEAR_SOLVER_PREC= LU_SGS
LINEAR_SOLVER_ERROR= 1E-6
LINEAR_SOLVER_ITER= 5

% -------------------------- MULTIGRID PARAMETERS -----------------------------%
%
MGLEVEL= 3
MGCYCLE= W_CYCLE
MG_PRE_SMOOTH= ( 1, 2, 3, 3 )
MG_POST_SMOOTH= ( 0, 0, 0, 0 )
MG_CORRECTION_SMOOTH= ( 0, 0, 0, 0 )
MG_DAMP_RESTRICTION= 0.95
MG_DAMP_PROLONGATION= 0.95

% -------------------- FLOW NUMERICAL METHOD DEFINITION -----------------------%
%
CONV_NUM_METHOD_FLOW= JST
SLOPE_LIMITER_FLOW= VENKATAKRISHNAN
VENKAT_LIMITER_COEFF= 0.03
JST_SENSOR_COEFF= ( 0.5, 0.02 )
TIME_DISCRE_FLOW= EULER_IMPLICIT

% ---------------- ADJOINT-FLOW NUMERICAL METHOD DEFINITION -------------------%
%
OBJECTIVE_FUNCTION= DRAG
CONV_NUM_METHOD_ADJFLOW= JST
SLOPE_LIMITER_ADJFLOW= SHARP_EDGES
ADJ_SHARP_LIMITER_COEFF= 3.0
ADJ_JST_SENSOR_COEFF= ( 0.0, 0.02 )
TIME_DISCRE_ADJFLOW= EULER_IMPLICIT
CFL_REDUCTION_ADJFLOW= 0.8
LIMIT_ADJFLOW= 1E6
SENS_REMOVE_SHARP= NO
SENS_SMOOTHING= NONE
FROZEN_VISC_CONT= YES

% ----------------------- GEOMETRY EVALUATION PARAMETERS ----------------------%
%
GEO_MODE= FUNCTION
GEO_MARKER= ( airfoil )

% ------------------------ GRID DEFORMATION PARAMETERS ------------------------%
%
DV_KIND= HICKS_HENNE
DV_MARKER= ( airfoil )
DV_PARAM= ( 1, 0.5 )
DV_VALUE= 0.05

% --------------------------- CONVERGENCE PARAMETERS --------------------------%
%
CONV_RESIDUAL_MINVAL= -13
CONV_STARTITER= 10
CONV_CAUCHY_ELEMS= 100
CONV_CAUCHY_EPS= 1E-6

% ------------------------- INPUT/OUTPUT INFORMATION --------------------------%
%
MESH_FILENAME= mesh_NACA0012_rot.su2
MESH_FORMAT= SU2
MESH_OUT_FILENAME= mesh_out.su2
SOLUTION_FILENAME= solution_flow.dat
SOLUTION_ADJ_FILENAME= solution_adj.dat
TABULAR_FORMAT= CSV
CONV_FILENAME= history
RESTART_FILENAME= restart_flow.dat
RESTART_ADJ_FILENAME= restart_adj.dat
VOLUME_FILENAME= flow
VOLUME_ADJ_FILENAME= adjoint
GRAD_OBJFUNC_FILENAME= of_grad.dat
SURFACE_FILENAME= surface_flow
SURFACE_ADJ_FILENAME= surface_adjoint
OUTPUT_WRT_FREQ= 250

% --------------------- OPTIMAL SHAPE DESIGN DEFINITION -----------------------%
%
OPT_OBJECTIVE= DRAG * 0.001
DEFINITION_DV= ( 30, 1.0 | airfoil | 0, 0.961538461538 ); ( 30, 1.0 | airfoil | 0, 0.923076923077 ); ( 30, 1.0 | airfoil | 0, 0.884615384615 ); ( 30, 1.0 | airfoil | 0, 0.846153846154 ); ( 30, 1.0 | airfoil | 0, 0.807692307692 ); ( 30, 1.0 | airfoil | 0, 0.769230769231 ); ( 30, 1.0 | airfoil | 0, 0.730769230769 ); ( 30, 1.0 | airfoil | 0, 0.692307692308 ); ( 30, 1.0 | airfoil | 0, 0.653846153846 ); ( 30, 1.0 | airfoil | 0, 0.615384615385 ); ( 30, 1.0 | airfoil | 0, 0.576923076923 ); ( 30, 1.0 | airfoil | 0, 0.538461538462 ); ( 30, 1.0 | airfoil | 0, 0.5 ); ( 30, 1.0 | airfoil | 0, 0.461538461538 ); ( 30, 1.0 | airfoil | 0, 0.423076923077 ); ( 30, 1.0 | airfoil | 0, 0.384615384615 ); ( 30, 1.0 | airfoil | 0, 0.346153846154 ); ( 30, 1.0 | airfoil | 0, 0.307692307692 ); ( 30, 1.0 | airfoil | 0, 0.269230769231 ); ( 30, 1.0 | airfoil | 0, 0.230769230769 ); ( 30, 1.0 | airfoil | 0, 0.192307692308 ); ( 30, 1.0 | airfoil | 0, 0.153846153846 ); ( 30, 1.0 | airfoil | 0, 0.115384615385 ); ( 30, 1.0 | airfoil | 0, 0.0769230769231 ); ( 30, 1.0 | airfoil | 0, 0.0384615384615 ); ( 30, 1.0 | airfoil | 1, 0.0384615384615 ); ( 30, 1.0 | airfoil | 1, 0.0769230769231 ); ( 30, 1.0 | airfoil | 1, 0.115384615385 ); ( 30, 1.0 | airfoil | 1, 0.153846153846 ); ( 30, 1.0 | airfoil | 1, 0.192307692308 ); ( 30, 1.0 | airfoil | 1, 0.230769230769 ); ( 30, 1.0 | airfoil | 1, 0.269230769231 ); ( 30, 1.0 | airfoil | 1, 0.307692307692 ); ( 30, 1.0 | airfoil | 1, 0.346153846154 ); ( 30, 1.0 | airfoil | 1, 0.384615384615 ); ( 30, 1.0 | airfoil | 1, 0.423076923077 ); ( 30, 1.0 | airfoil | 1, 0.461538461538 ); ( 30, 1.0 | airfoil | 1, 0.5 ); ( 30, 1.0 | airfoil | 1, 0.538461538462 ); ( 30, 1.0 | airfoil | 1, 0.576923076923 ); ( 30, 1.0 | airfoil | 1, 0.615384615385 ); ( 30, 1.0 | airfoil | 1, 0.653846153846 ); ( 30, 1.0 | airfoil | 1, 0.692307692308 ); ( 30, 1.0 | airfoil | 1, 0.730769230769 ); ( 30, 1.0 | airfoil | 1, 0.769230769231 ); ( 30, 1.0 | airfoil | 1, 0.807692307692 ); ( 30, 1.0 | airfoil | 1, 0.846153846154 ); ( 30, 1.0 | airfoil | 1, 0.884615384615 ); ( 30, 1.0 | airfoil | 1, 0.923076923077 ); ( 30, 1.0 | airfoil | 1, 0.961538461538 )
