
%%%%%%%%%%%%%%%%%%%%%%%%%%%%%%%%%%%%%%%%%%%%%%%%%%%%%%%%%%%%%%%%%%%%%%%%%%%%%%%%%
%                                                                               %
% SU2 configuration file                                                        %
% Case description: 2D Cylinder test case for discrete adjoint heat solver      %
% Author: Ole Burghardt                                                         %
% Institution: Chair for Scientific Computing, TU Kaiserslautern                %
% Date: November 26th, 2018                                                     %
% File Version 8.0.0 "Harrier"                                                  %
%                                                                               %
%%%%%%%%%%%%%%%%%%%%%%%%%%%%%%%%%%%%%%%%%%%%%%%%%%%%%%%%%%%%%%%%%%%%%%%%%%%%%%%%%

% ------------- DIRECT, ADJOINT, AND LINEARIZED PROBLEM DEFINITION ------------%

SOLVER= INC_RANS

KIND_TURB_MODEL= SA

WEAKLY_COUPLED_HEAT_EQUATION= YES

MATH_PROBLEM= DISCRETE_ADJOINT


RESTART_SOL= NO

SYSTEM_MEASUREMENTS= SI

OBJECTIVE_FUNCTION= TOTAL_HEATFLUX

ITER = 11

% ---------------- INCOMPRESSIBLE FLOW CONDITION DEFINITION -------------------%

INC_DENSITY_MODEL= CONSTANT

INC_ENERGY_EQUATION= NO

INC_DENSITY_INIT= 998.2

INC_VELOCITY_INIT= ( 0.25, 0.0, 0.0 )

INC_TEMPERATURE_INIT= 300.0

INC_NONDIM= INITIAL_VALUES

INC_INLET_TYPE = VELOCITY_INLET

INC_OUTLET_TYPE= PRESSURE_OUTLET

% ---------------- (SOLIDS) CONDUCTION CONDITION DEFINITION -------------------%

FREESTREAM_TEMPERATURE= 350.0

% ---- IDEAL GAS, POLYTROPIC, VAN DER WAALS AND PENG ROBINSON CONSTANTS -------%

SPECIFIC_HEAT_CP = 4182.0

% --------------------------- VISCOSITY MODEL ---------------------------------%

VISCOSITY_MODEL=CONSTANT_VISCOSITY

MU_CONSTANT= 1.003E-3

% --------------------------- THERMAL CONDUCTIVITY MODEL ----------------------%

CONDUCTIVITY_MODEL= CONSTANT_PRANDTL

PRANDTL_LAM = 6.99091

% -------------------- BOUNDARY CONDITION DEFINITION --------------------------%

MARKER_INLET= ( IN, 300.0, 0.25, 1.0, 0.0, 0.0 )

MARKER_OUTLET= ( OUT, 0 )

MARKER_SYM= ( SYM, SYMINNER )

MARKER_ISOTHERMAL= ( PIN, 350.0, NOZZLE, 300.0 )

% ------------------------ SURFACES IDENTIFICATION ----------------------------%

MARKER_PLOTTING = ( PIN )

MARKER_MONITORING = ( PIN )

% ------------- COMMON PARAMETERS DEFINING THE NUMERICAL METHOD ---------------%

NUM_METHOD_GRAD= GREEN_GAUSS

CFL_NUMBER= 1000

CFL_ADAPT= NO

CFL_ADAPT_PARAM= ( 1.5, 0.5, 100.0, 10000.0 )

% ------------------------ LINEAR SOLVER DEFINITION ---------------------------%

LINEAR_SOLVER= FGMRES

LINEAR_SOLVER_PREC= ILU

LINEAR_SOLVER_ERROR= 1E-8

LINEAR_SOLVER_ITER= 10

% -------------------- FLOW NUMERICAL METHOD DEFINITION -----------------------%

CONV_NUM_METHOD_FLOW= JST

JST_SENSOR_COEFF= ( 0.5, 0.05 )

TIME_DISCRE_FLOW= EULER_IMPLICIT

% -------------------- TURBULENT NUMERICAL METHOD DEFINITION ------------------%

CONV_NUM_METHOD_TURB= SCALAR_UPWIND

MUSCL_TURB= NO

TIME_DISCRE_TURB= EULER_IMPLICIT

CFL_REDUCTION_TURB= 1.0


% -------------------- HEAT NUMERICAL METHOD DEFINITION -----------------------%

CONV_NUM_METHOD_HEAT = SCALAR_UPWIND

MUSCL_HEAT= YES

TIME_DISCRE_HEAT= EULER_IMPLICIT

% --------------------------- CONVERGENCE PARAMETERS --------------------------%

CONV_RESIDUAL_MINVAL= -32

CONV_STARTITER= 200

CONV_CAUCHY_ELEMS= 100

CONV_CAUCHY_EPS= 1E-10

% ----------------------- DESIGN VARIABLE PARAMETERS --------------------------%

DV_KIND= FFD_CONTROL_POINT_2D

DV_PARAM = ( PIN_BOX, 8, 4, 1.0, -1.0 )

DV_MARKER = ( PIN )

DV_VALUE = 0.0005

% ------------------------ GRID DEFORMATION PARAMETERS ------------------------%

DEFORM_LINEAR_SOLVER= FGMRES

DEFORM_LINEAR_SOLVER_ITER= 100

DEFORM_CONSOLE_OUTPUT= YES

DEFORM_STIFFNESS_TYPE= WALL_DISTANCE

% -------------------- FREE-FORM DEFORMATION PARAMETERS -----------------------%

FFD_TOLERANCE= 1E-10

FFD_DEFINITION=( PIN_BOX, -0.0005, -0.0005, 0.0, -0.0005, 0.0015, 0.0, 0.0025, 0.0015, 0.0, 0.0025, -0.0005, 0.0, 0.0, 0.0, 0.0, 0.0, 0.0, 0.0, 0.0, 0.0, 0.0, 0.0, 0.0, 0.0 )

FFD_DEGREE= (10, 10, 0)

FFD_ITERATIONS= 100

FFD_BLENDING=BSPLINE_UNIFORM

FFD_BSPLINE_ORDER=4,4,2

% ------------------------- INPUT/OUTPUT INFORMATION --------------------------%

MESH_FILENAME= cylinder2d_ffd.su2

MESH_FORMAT= SU2

MESH_OUT_FILENAME= mesh_out.su2

SOLUTION_FILENAME= solution_flow.dat

SOLUTION_ADJ_FILENAME= solution_adj.dat

TABULAR_FORMAT= CSV

CONV_FILENAME= history

BREAKDOWN_FILENAME= 6rows_forces_breakdown.dat

RESTART_FILENAME= restart_flow.dat

RESTART_ADJ_FILENAME= restart_adj.dat

VOLUME_FILENAME= flow

VOLUME_ADJ_FILENAME= adjoint

VALUE_OBJFUNC_FILENAME= of_eval.dat

GRAD_OBJFUNC_FILENAME= of_grad.dat

SURFACE_FILENAME= surface_flow

SURFACE_ADJ_FILENAME= surface_adjoint

OUTPUT_WRT_FREQ= 1

SCREEN_OUTPUT= (INNER_ITER, RMS_ADJ_PRESSURE, RMS_ADJ_NU_TILDE, RMS_ADJ_HEAT, SENS_VEL_IN, SENS_PRESS_OUT)
