%%%%%%%%%%%%%%%%%%%%%%%%%%%%%%%%%%%%%%%%%%%%%%%%%%%%%%%%%%%%%%%%%%%%%%%%%%%%%%%%
% SU2 configuration file                                                       %
% Case description: Laminar premixed flame stabilized on isothermal burner     %
% Author: Nijso Beishuizen                                                     %
% Institution: Bosch Thermotechnology                                          %
% Date: 08/09/2021                                                             %
% File Version 7.5.1 "Blackbird"                                               %
%                                                                              %
%%%%%%%%%%%%%%%%%%%%%%%%%%%%%%%%%%%%%%%%%%%%%%%%%%%%%%%%%%%%%%%%%%%%%%%%%%%%%%%%
%
% ------------- DIRECT, ADJOINT, AND LINEARIZED PROBLEM DEFINITION ------------%
%
SOLVER = INC_NAVIER_STOKES
KIND_TURB_MODEL= NONE
MATH_PROBLEM= DIRECT
RESTART_SOL = YES
%
% ---------------- INCOMPRESSIBLE FLOW CONDITION DEFINITION -------------------%
%
INC_DENSITY_MODEL= VARIABLE 
INC_ENERGY_EQUATION = YES
INC_DENSITY_INIT= 1.00
INC_VELOCITY_INIT= (0.5, 0.0, 0.0 )
INC_TEMPERATURE_INIT= 300.0
INC_NONDIM= DIMENSIONAL
%
% -------------------- FLUID MODEL --------------------------------------- %
%
FLUID_MODEL= FLUID_FLAMELET
FILENAME_LUT= fgm.drg
%
% -------------------- SCALAR TRANSPORT ---------------------------------------%
%
KIND_SCALAR_MODEL= FLAMELET      
DIFFUSIVITY_MODEL= FLAMELET
VISCOSITY_MODEL= FLAMELET
CONDUCTIVITY_MODEL= FLAMELET
FLAME_OFFSET    = 0.0032 0.00 0.0
FLAME_THICKNESS = 1.0e-3
FLAME_BURNT_THICKNESS = 0.1
% # pointing in the burnt direction
FLAME_NORMAL = 1.0 0.1 0.0
% # progvar, enthalpy
SPECIES_INIT = (0.0, -210000, 0.0, 0.0)
CONV_NUM_METHOD_SPECIES= SCALAR_UPWIND
MUSCL_SPECIES= YES
SLOPE_LIMITER_SPECIES= NONE
TIME_DISCRE_SPECIES= EULER_IMPLICIT
% SCALAR CLIPPING
SPECIES_CLIPPING= YES
SPECIES_CLIPPING_MIN= 0 -2e6 0 0
SPECIES_CLIPPING_MAX= 1 2e6 1 1
%
MARKER_INLET_SPECIES = (inlet, 0, -193600.0, 0.0, 0.0)
CFL_REDUCTION_SPECIES= 1.0
SPECIES_USE_STRONG_BC= YES
LOOKUP_NAMES = (MolarWeightMix, Conductivity, Cp, HeatRelease, Diffusivity)
USER_SCALAR_NAMES= (CO, NOx)
USER_SOURCE_NAMES = ( \
    ProdRatePos_Y-CO,  ProdRateNegScaled_Y-CO  ,\
    ProdRateTot_Y-NOx, NULL
)
%USER_SOURCE_NAMES = ( \
%    ProdRatePos_Y-CO,  ProdRateNeg_Y-CO  ,\
%    ProdRatePos_Y-NOx, ProdRateNeg_Y-NOx
%)
%
% ---------------------- REFERENCE VALUE DEFINITION ---------------------------%
%
REF_ORIGIN_MOMENT_X = 0.25
REF_ORIGIN_MOMENT_Y = 0.00
REF_ORIGIN_MOMENT_Z = 0.00
REF_LENGTH= 1.0
REF_AREA= 1.0
%
% -------------------- BOUNDARY CONDITION DEFINITION --------------------------%
%
MARKER_ISOTHERMAL= (wall, 450)
MARKER_SYM= (symmetry, symmetry_2-part-fluid)
INC_INLET_TYPE= VELOCITY_INLET
MARKER_INLET = (inlet, 300.0, 0.20, 1.0, 0.0, 0.0)
INC_OUTLET_TYPE= PRESSURE_OUTLET
%INC_INLET_DAMPING = 0.05
%INC_OUTLET_DAMPING = 0.05
MARKER_OUTLET= (outlet, 0.0)
MARKER_PLOTTING= ( wall )
MARKER_MONITORING= ( wall )
MARKER_ANALYZE= ( inlet,outlet )
MARKER_ANALYZE_AVERAGE = AREA
%
% ------------- COMMON PARAMETERS DEFINING THE NUMERICAL METHOD ---------------%
%
NUM_METHOD_GRAD= WEIGHTED_LEAST_SQUARES
CFL_NUMBER= 350
CFL_ADAPT= NO
ITER= 100
OUTPUT_WRT_FREQ= 100
%
% ------------------------ LINEAR SOLVER DEFINITION ---------------------------%
%
LINEAR_SOLVER= FGMRES
LINEAR_SOLVER_PREC= ILU
LINEAR_SOLVER_ERROR= 1E-03
LINEAR_SOLVER_ITER= 10
%
% -------------------------- MULTIGRID PARAMETERS -----------------------------%
%
MGLEVEL= 0
%
% -------------------- FLOW NUMERICAL METHOD DEFINITION -----------------------%
%
CONV_NUM_METHOD_FLOW= FDS
MUSCL_FLOW= YES
SLOPE_LIMITER_FLOW = NONE
TIME_DISCRE_FLOW= EULER_IMPLICIT
%
% --------------------------- CONVERGENCE PARAMETERS --------------------------%
%
CONV_RESIDUAL_MINVAL= -15
CONV_STARTITER= 10
CONV_CAUCHY_ELEMS= 100
CONV_CAUCHY_EPS= 1E-6
%SCREEN_OUTPUT = INNER_ITER WALL_TIME LINSOL_ITER LINSOL_RESIDUAL LINSOL_ITER_SPECIES LINSOL_RESIDUAL_SPECIES RMS_SPECIES RMS_PRESSURE RMS_TEMPERATURE RMS_VELOCITY_X RMS_PROGRESS_VARIABLE RMS_TOTAL_ENTHALPY RMS_CO RMS_NOX N_TABLE_MISSES
SCREEN_OUTPUT = INNER_ITER WALL_TIME RMS_VELOCITY_X RMS_PRESSURE RMS_PROGRESS_VARIABLE RMS_TOTAL_ENTHALPY
HISTORY_OUTPUT = RMS_RES AERO_COEFF FLOW_COEFF FLOW_COEFF_SURF
VOLUME_OUTPUT = SOLUTION PRIMITIVE SOURCE RESIDUAL SENSITIVITY LOOKUP TIMESTEP
CONV_FIELD = RMS_PRESSURE
%
% ------------------------- INPUT/OUTPUT INFORMATION --------------------------%
%
MESH_FORMAT= CGNS
MESH_FILENAME = fluidmesh.cgns
MESH_OUT_FILENAME= mesh_out.su2
SOLUTION_FILENAME= solution.dat
RESTART_FILENAME= restart.dat
%OUTPUT_FILES = (RESTART,PARAVIEW,PARAVIEW_MULTIBLOCK) 
OUTPUT_FILES = (RESTART) 
TABULAR_FORMAT = CSV
CONV_FILENAME= history
VOLUME_FILENAME= flow
SURFACE_FILENAME= surface_flow
WRT_PERFORMANCE = NO 
SCREEN_WRT_FREQ_INNER = 1
SCREEN_WRT_FREQ_OUTER = 1
