%%%%%%%%%%%%%%%%%%%%%%%%%%%%%%%%%%%%%%%%%%%%%%%%%%%%%%%%%%%%%%%%%%%%%%%%%%%%%%%%
% SU2 configuration file                                                       %
% Case description: Laminar premixed flame stabilized on isothermal burner     %
% Author: Nijso Beishuizen                                                     %
% Institution: Bosch Thermotechnology                                          %
% Date: 08/09/2021                                                             %
% File Version 7.2.0 "Falcon", branch: feature_flamelet                        %
%                                                                              %
%%%%%%%%%%%%%%%%%%%%%%%%%%%%%%%%%%%%%%%%%%%%%%%%%%%%%%%%%%%%%%%%%%%%%%%%%%%%%%%%

% ------------- DIRECT, ADJOINT, AND LINEARIZED PROBLEM DEFINITION ------------%
SOLVER = INC_NAVIER_STOKES
KIND_TURB_MODEL= NONE
MATH_PROBLEM= DIRECT
RESTART_SOL = NO
% ---------------- INCOMPRESSIBLE FLOW CONDITION DEFINITION -------------------%
INC_DENSITY_MODEL= VARIABLE
%INC_ENERGY_EQUATION = YES
INC_DENSITY_INIT= 1.1728
INC_VELOCITY_INIT= (0.0, 0.1, 0.0 )
INC_TEMPERATURE_INIT= 300.0
INC_NONDIM= DIMENSIONAL
% -------------------- COMPRESSIBLE FREE-STREAM DEFINITION --------------------%
MACH_NUMBER= 0.01
%AOA= 0.0
FREESTREAM_TEMPERATURE = 300.0
FREESTREAM_PRESSURE = 101325.0 
FREESTREAM_DENSITY = 1.1768
FREESTREAM_VELOCITY = (0.0, 0.0, 0.0)
REYNOLDS_NUMBER= 290000.0
REYNOLDS_LENGTH= 1.0
% -------------------- FLUID MODEL --------------------------------------- %
FLUID_MODEL= FLAMELET_FLUID_MODEL
FILENAME_LUT = fgm_small.drg
FLAME_OFFSET = 0.0 0.0031 0
FLAME_THICKNESS = 0.2e-3
FLAME_NORMAL = 0.05 1 0 
BURNT_THICKNESS = 1 
% -------------------- SCALAR TRANSPORT ---------------------------------------%
SCALAR_INIT = (0, -193880, 0, 0)
CONV_NUM_METHOD_SCALAR= SCALAR_UPWIND
MUSCL_SCALAR= YES
SLOPE_LIMITER_SCALAR = NONE
TIME_DISCRE_SCALAR= EULER_IMPLICIT
SCALAR_CLIPPING= YES
SCALAR_CLIPPING_MIN= 0 -2310000 0 0
SCALAR_CLIPPING_MAX= 0.2100 375000 1 1
LOOKUP_NAMES = (MolarWeightMix, ProdRateNeg-CO_OverY-CO, ProdRatePos-CO, Conductivity, HeatRelease, Diffusivity, Y-H2O)
% --------------------------- VISCOSITY MODEL ---------------------------------%
VISCOSITY_MODEL= SUTHERLAND
MU_CONSTANT= 1.716E-5
MU_REF= 1.716E-5
MU_T_REF= 273.15
SUTHERLAND_CONSTANT= 110.4
% -------------------- BOUNDARY CONDITION DEFINITION --------------------------%
MARKER_ANALYZE = (outlet)
MARKER_ANALYZE_AVERAGE = AREA
MARKER_ISOTHERMAL= (wall, 800)
MARKER_SYM= (symmetry, symmetry_2-part-fluid)
INC_INLET_TYPE= VELOCITY_INLET
%INLET_TYPE= TOTAL_CONDITIONS
MARKER_INLET = (inlet, 300.0, 0.30, 0.0, 1.0, 0.0)
MARKER_INLET_SCALAR = (inlet, 0, 0, 0, 0, 0, 0)
INC_OUTLET_TYPE= PRESSURE_OUTLET
MARKER_OUTLET = (outlet, 0.0)
MARKER_MONITORING= ( outlet )
% ------------- COMMON PARAMETERS DEFINING THE NUMERICAL METHOD ---------------%
NUM_METHOD_GRAD= WEIGHTED_LEAST_SQUARES
CFL_NUMBER= 1000
CFL_REDUCTION_SCALAR= 1
CFL_ADAPT = NO
ITER=10000
% ------------------------ LINEAR SOLVER DEFINITION ---------------------------%
LINEAR_SOLVER= FGMRES
LINEAR_SOLVER_PREC= ILU
LINEAR_SOLVER_ERROR= 1E-04
LINEAR_SOLVER_ITER= 40
% -------------------------- MULTIGRID PARAMETERS -----------------------------%
MGLEVEL= 0
% -------------------- FLOW NUMERICAL METHOD DEFINITION -----------------------%
CONV_NUM_METHOD_FLOW= FDS
MUSCL_FLOW= YES
SLOPE_LIMITER_FLOW = NONE
TIME_DISCRE_FLOW= EULER_IMPLICIT
% --------------------------- CONVERGENCE PARAMETERS --------------------------%
CONV_CRITERIA= RESIDUAL
CONV_RESIDUAL_MINVAL= -32
CONV_STARTITER= 10
CONV_CAUCHY_ELEMS= 100
CONV_CAUCHY_EPS= 1E-6
SCREEN_OUTPUT = INNER_ITER RMS_PRESSURE RMS_VELOCITY_X RMS_PROGRESS_VARIABLE RMS_ENTHALPY RMS_Y_CO RMS_Y_NOX N_TABLE_MISSES
HISTORY_OUTPUT = RMS_RES AERO_COEFF FLOW_COEFF FLOW_COEFF_SURF
VOLUME_OUTPUT = SOLUTION PRIMITIVE SOURCE RESIDUAL SENSITIVITY LOOKUP TIMESTEP
% ------------------------- INPUT/OUTPUT INFORMATION --------------------------%
MESH_FILENAME = mesh_medium_fluidonly.cgns
MESH_FORMAT= CGNS
SOLUTION_FILENAME= solution_flow.dat
OUTPUT_FILES = (RESTART, PARAVIEW, SURFACE_PARAVIEW, PARAVIEW_ASCII) 
TABULAR_FORMAT = CSV
CONV_FILENAME= history
RESTART_FILENAME= restart_flow.dat
VOLUME_FILENAME= flow
SURFACE_FILENAME= surface
OUTPUT_WRT_FREQ= 100
WRT_PERFORMANCE = YES
WRT_SOL_OVERWRITE = YES
SCREEN_WRT_FREQ_INNER = 1
SCREEN_WRT_FREQ_OUTER = 1
