% ------------- DIRECT, ADJOINT, AND LINEARIZED PROBLEM DEFINITION ------------%
SOLVER= RANS
KIND_TURB_MODEL= SST
SST_OPTIONS= V1994m
RESTART_SOL= YES
% -------------------- COMPRESSIBLE FREE-STREAM DEFINITION --------------------%
MACH_NUMBER= 0.2
AOA= 0.0
SIDESLIP_ANGLE= 0.0
FREESTREAM_TEMPERATURE= 300.0
REYNOLDS_NUMBER= 3.0E6
REYNOLDS_LENGTH= 1.0
FREESTREAM_TURBULENCEINTENSITY= 0.0003872980998351247
FREESTREAM_TURB2LAMVISCRATIO= 0.009
% ---------------------- REFERENCE VALUE DEFINITION ---------------------------%
REF_ORIGIN_MOMENT_X= 0.00
REF_ORIGIN_MOMENT_Y= 0.00
REF_ORIGIN_MOMENT_Z= 0.00
REF_LENGTH= 1.5
REF_AREA= 1.5
% -------------------- BOUNDARY CONDITION DEFINITION --------------------------%
MARKER_HEATFLUX= ( bump, 0.0 )
MARKER_SYM= ( lower_upstream, lower_downstream, upper )
MARKER_INLET= ( inlet, 302.4, 70614.866784, 1.0, 0.0, 0.0 )
MARKER_OUTLET= ( outlet, 68672.8 )
MARKER_PLOTTING= ( bump )
MARKER_MONITORING= ( bump )
% ------------- COMMON PARAMETERS DEFINING THE NUMERICAL METHOD ---------------%
NUM_METHOD_GRAD= WEIGHTED_LEAST_SQUARES
NUM_METHOD_GRAD_RECON= LEAST_SQUARES
CFL_NUMBER= 1e3
CFL_ADAPT= NO
ITER= 99999
% ------------------------ LINEAR SOLVER DEFINITION ---------------------------%
LINEAR_SOLVER= FGMRES
LINEAR_SOLVER_PREC= ILU
LINEAR_SOLVER_ILU_FILL_IN= 0
LINEAR_SOLVER_ERROR= 1E-10
LINEAR_SOLVER_ITER= 25
% -------------------- FLOW NUMERICAL METHOD DEFINITION -----------------------%
CONV_NUM_METHOD_FLOW= ROE
MUSCL_FLOW= YES
SLOPE_LIMITER_FLOW= NONE
TIME_DISCRE_FLOW= EULER_IMPLICIT
% -------------------- TURBULENT NUMERICAL METHOD DEFINITION ------------------%
CONV_NUM_METHOD_TURB= SCALAR_UPWIND
MUSCL_TURB= NO
TIME_DISCRE_TURB= EULER_IMPLICIT
% --------------------------- CONVERGENCE PARAMETERS --------------------------%
CONV_FIELD= RMS_DENSITY
CONV_RESIDUAL_MINVAL= -13
% ------------------------- INPUT/OUTPUT INFORMATION --------------------------%
MESH_FILENAME= mesh_bump_2d_0089x041.cgns
MESH_FORMAT= CGNS
MESH_OUT_FILENAME= mesh_out.su2
SOLUTION_FILENAME= solution_flow.dat

CONV_FILENAME= history
RESTART_FILENAME= restart_flow.dat
VOLUME_FILENAME= flow
SURFACE_FILENAME= surface_flow
SCREEN_OUTPUT= INNER_ITER WALL_TIME RMS_RES DRAG
OUTPUT_FILES= RESTART PARAVIEW SURFACE_PARAVIEW SURFACE_CSV
OUTPUT_WRT_FREQ = 10000
HISTORY_OUTPUT= ITER RMS_RES AERO_COEFF

