%%%%%%%%%%%%%%%%%%%%%%%%%%%%%%%%%%%%%%%%%%%%%%%%%%%%%%%%%%%%%%%%%%%%%%%%%%%%%%%%
%                                                                              %
% SU2 configuration file                                                       %
% Case description: ONERA M6 wing in inviscid, transonic flow                  %
% Author: Thomas D. Economon                                                   %
% Institution: Stanford University                                             %
% Date: 2015.08.25                                                             %
% File Version 8.0.0 "Harrier"                                                 %
%                                                                              %
%%%%%%%%%%%%%%%%%%%%%%%%%%%%%%%%%%%%%%%%%%%%%%%%%%%%%%%%%%%%%%%%%%%%%%%%%%%%%%%%

% ------------- DIRECT, ADJOINT, AND LINEARIZED PROBLEM DEFINITION ------------%
%
SOLVER= EULER
MATH_PROBLEM= CONTINUOUS_ADJOINT
RESTART_SOL= YES
READ_BINARY_RESTART= NO

% -------------------- COMPRESSIBLE FREE-STREAM DEFINITION --------------------%
%
MACH_NUMBER= 0.8395
AOA= 3.06
SIDESLIP_ANGLE= 0.0
FREESTREAM_PRESSURE= 101325.0
FREESTREAM_TEMPERATURE= 288.15

% ---------------------- REFERENCE VALUE DEFINITION ---------------------------%
%
REF_ORIGIN_MOMENT_X = 0.25
REF_ORIGIN_MOMENT_Y = 0.00
REF_ORIGIN_MOMENT_Z = 0.00
REF_LENGTH= 1.0
REF_AREA= 0
REF_DIMENSIONALIZATION= FREESTREAM_VEL_EQ_ONE

% ----------------------- BOUNDARY CONDITION DEFINITION -----------------------%
%
MARKER_EULER= ( WING )
MARKER_FAR= ( FARFIELD )
MARKER_SYM= ( SYMMETRY )

% ------------------------ SURFACES IDENTIFICATION ----------------------------%
%
MARKER_PLOTTING = ( WING )
MARKER_MONITORING = ( WING )
MARKER_DESIGNING = ( WING )

% ------------- COMMON PARAMETERS TO DEFINE THE NUMERICAL METHOD --------------%
%
NUM_METHOD_GRAD= WEIGHTED_LEAST_SQUARES
OBJECTIVE_FUNCTION= DRAG
CFL_NUMBER= 5.0
CFL_ADAPT= NO
CFL_ADAPT_PARAM= ( 1.5, 0.5, 1.0, 100.0 )
RK_ALPHA_COEFF= ( 0.66667, 0.66667, 1.000000 )
ITER= 99999
LINEAR_SOLVER= FGMRES
LINEAR_SOLVER_PREC= LU_SGS
LINEAR_SOLVER_ERROR= 1E-6
LINEAR_SOLVER_ITER= 2

% ----------------------- SLOPE LIMITER DEFINITION ----------------------------%
%
VENKAT_LIMITER_COEFF= 0.03
ADJ_SHARP_LIMITER_COEFF= 3.0
REF_SHARP_EDGES= 3.0
SENS_REMOVE_SHARP= YES

% -------------------------- MULTIGRID PARAMETERS -----------------------------%
%
MGLEVEL= 3
MGCYCLE= W_CYCLE
MG_PRE_SMOOTH= ( 1, 2, 3, 3 )
MG_POST_SMOOTH= ( 0, 0, 0, 0 )
MG_CORRECTION_SMOOTH= ( 0, 0, 0, 0 )
MG_DAMP_RESTRICTION= 0.9
MG_DAMP_PROLONGATION= 0.9

% -------------------- FLOW NUMERICAL METHOD DEFINITION -----------------------%
%
CONV_NUM_METHOD_FLOW= JST
JST_SENSOR_COEFF= ( 0.5, 0.02 )
TIME_DISCRE_FLOW= EULER_IMPLICIT

% ---------------- ADJOINT-FLOW NUMERICAL METHOD DEFINITION -------------------%
%
CONV_NUM_METHOD_ADJFLOW= JST
ADJ_JST_SENSOR_COEFF= ( 0.0, 0.02 )
CFL_REDUCTION_ADJFLOW= 0.5
TIME_DISCRE_ADJFLOW= EULER_IMPLICIT

% --------------------------- CONVERGENCE PARAMETERS --------------------------&
%
CONV_RESIDUAL_MINVAL= -12
CONV_STARTITER= 25
CONV_CAUCHY_ELEMS= 100
CONV_CAUCHY_EPS= 1E-10

% ------------------------- INPUT/OUTPUT INFORMATION --------------------------%
%
MESH_FILENAME= mesh_ONERAM6_inv_ffd.su2
MESH_OUT_FILENAME= mesh_out.su2
SOLUTION_FILENAME= solution_flow.dat
SOLUTION_ADJ_FILENAME= solution_adj.dat
MESH_FORMAT= SU2
TABULAR_FORMAT= CSV
CONV_FILENAME= history
RESTART_FILENAME= restart_flow.dat
RESTART_ADJ_FILENAME= restart_adj.dat
VOLUME_FILENAME= flow
VOLUME_ADJ_FILENAME= adjoint
GRAD_OBJFUNC_FILENAME= of_grad.dat
SURFACE_FILENAME= surface_flow
SURFACE_ADJ_FILENAME= surface_adjoint
OUTPUT_WRT_FREQ= 100
SCREEN_OUTPUT = (INNER_ITER, RMS_ADJ_DENSITY, RMS_ADJ_ENERGY, SENS_GEO, SENS_AOA)
OUTPUT_FILES=(RESTART_ASCII)

% ----------------------- DESIGN VARIABLE PARAMETERS --------------------------%
%
DV_KIND= FFD_CONTROL_POINT
DV_MARKER= ( WING )
DV_PARAM= ( MAIN_BOX, 2, 3, 1, 0.0, 0.0, 1.0 )
DV_VALUE= 0.05

% ------------------------ GRID DEFORMATION PARAMETERS ------------------------%
%
DEFORM_LINEAR_SOLVER= FGMRES
DEFORM_LINEAR_SOLVER_ITER= 500
DEFORM_NONLINEAR_ITER= 2
DEFORM_CONSOLE_OUTPUT= NO
DEFORM_LINEAR_SOLVER_ERROR= 1E-14
DEFORM_STIFFNESS_TYPE= INVERSE_VOLUME

% -------------------- FREE-FORM DEFORMATION PARAMETERS -----------------------%
%
FFD_TOLERANCE= 1E-10
FFD_ITERATIONS= 500
FFD_DEFINITION= (MAIN_BOX, -0.0403, 0.0, -0.04836, 0.8463, 0.0, -0.04836, 1.209, 1.2896, -0.04836, 0.6851, 1.2896, -0.04836, -0.0403, 0.0, 0.04836, 0.8463, 0.0, 0.04836, 1.209, 1.2896, 0.04836, 0.6851, 1.2896, 0.04836)
FFD_DEGREE= (10, 8, 1)
FFD_CONTINUITY= 2ND_DERIVATIVE

% --------------------- OPTIMAL SHAPE DESIGN DEFINITION -----------------------%
%
OPT_OBJECTIVE= DRAG * 1.0
OPT_CONSTRAINT= ( LIFT > 0.282557 ) * 1.0
OPT_ITERATIONS= 100
OPT_ACCURACY= 1E-6
OPT_BOUND_UPPER= 0.1
OPT_BOUND_LOWER= -0.1
DEFINITION_DV= ( 11, 1.0 | WING | MAIN_BOX, 0, 3, 0, 0.0, 0.0, 1.0 ); ( 11, 1.0 | WING | MAIN_BOX, 1, 3, 0, 0.0, 0.0, 1.0 ); ( 11, 1.0 | WING | MAIN_BOX, 2, 3, 0, 0.0, 0.0, 1.0 ); ( 11, 1.0 | WING | MAIN_BOX, 3, 3, 0, 0.0, 0.0, 1.0 ); ( 11, 1.0 | WING | MAIN_BOX, 4, 3, 0, 0.0, 0.0, 1.0 ); ( 11, 1.0 | WING | MAIN_BOX, 5, 3, 0, 0.0, 0.0, 1.0 ); ( 11, 1.0 | WING | MAIN_BOX, 6, 3, 0, 0.0, 0.0, 1.0 ); ( 11, 1.0 | WING | MAIN_BOX, 7, 3, 0, 0.0, 0.0, 1.0 ); ( 11, 1.0 | WING | MAIN_BOX, 8, 3, 0, 0.0, 0.0, 1.0 ); ( 11, 1.0 | WING | MAIN_BOX, 9, 3, 0, 0.0, 0.0, 1.0 ); ( 11, 1.0 | WING | MAIN_BOX, 10, 3, 0, 0.0, 0.0, 1.0 ); ( 11, 1.0 | WING | MAIN_BOX, 0, 4, 0, 0.0, 0.0, 1.0 ); ( 11, 1.0 | WING | MAIN_BOX, 1, 4, 0, 0.0, 0.0, 1.0 ); ( 11, 1.0 | WING | MAIN_BOX, 2, 4, 0, 0.0, 0.0, 1.0 ); ( 11, 1.0 | WING | MAIN_BOX, 3, 4, 0, 0.0, 0.0, 1.0 ); ( 11, 1.0 | WING | MAIN_BOX, 4, 4, 0, 0.0, 0.0, 1.0 ); ( 11, 1.0 | WING | MAIN_BOX, 5, 4, 0, 0.0, 0.0, 1.0 ); ( 11, 1.0 | WING | MAIN_BOX, 6, 4, 0, 0.0, 0.0, 1.0 ); ( 11, 1.0 | WING | MAIN_BOX, 7, 4, 0, 0.0, 0.0, 1.0 ); ( 11, 1.0 | WING | MAIN_BOX, 8, 4, 0, 0.0, 0.0, 1.0 ); ( 11, 1.0 | WING | MAIN_BOX, 9, 4, 0, 0.0, 0.0, 1.0 ); ( 11, 1.0 | WING | MAIN_BOX, 10, 4, 0, 0.0, 0.0, 1.0 ); ( 11, 1.0 | WING | MAIN_BOX, 0, 5, 0, 0.0, 0.0, 1.0 ); ( 11, 1.0 | WING | MAIN_BOX, 1, 5, 0, 0.0, 0.0, 1.0 ); ( 11, 1.0 | WING | MAIN_BOX, 2, 5, 0, 0.0, 0.0, 1.0 ); ( 11, 1.0 | WING | MAIN_BOX, 3, 5, 0, 0.0, 0.0, 1.0 ); ( 11, 1.0 | WING | MAIN_BOX, 4, 5, 0, 0.0, 0.0, 1.0 ); ( 11, 1.0 | WING | MAIN_BOX, 5, 5, 0, 0.0, 0.0, 1.0 ); ( 11, 1.0 | WING | MAIN_BOX, 6, 5, 0, 0.0, 0.0, 1.0 ); ( 11, 1.0 | WING | MAIN_BOX, 7, 5, 0, 0.0, 0.0, 1.0 ); ( 11, 1.0 | WING | MAIN_BOX, 8, 5, 0, 0.0, 0.0, 1.0 ); ( 11, 1.0 | WING | MAIN_BOX, 9, 5, 0, 0.0, 0.0, 1.0 ); ( 11, 1.0 | WING | MAIN_BOX, 10, 5, 0, 0.0, 0.0, 1.0 ); ( 11, 1.0 | WING | MAIN_BOX, 0, 6, 0, 0.0, 0.0, 1.0 ); ( 11, 1.0 | WING | MAIN_BOX, 1, 6, 0, 0.0, 0.0, 1.0 ); ( 11, 1.0 | WING | MAIN_BOX, 2, 6, 0, 0.0, 0.0, 1.0 ); ( 11, 1.0 | WING | MAIN_BOX, 3, 6, 0, 0.0, 0.0, 1.0 ); ( 11, 1.0 | WING | MAIN_BOX, 4, 6, 0, 0.0, 0.0, 1.0 ); ( 11, 1.0 | WING | MAIN_BOX, 5, 6, 0, 0.0, 0.0, 1.0 ); ( 11, 1.0 | WING | MAIN_BOX, 6, 6, 0, 0.0, 0.0, 1.0 ); ( 11, 1.0 | WING | MAIN_BOX, 7, 6, 0, 0.0, 0.0, 1.0 ); ( 11, 1.0 | WING | MAIN_BOX, 8, 6, 0, 0.0, 0.0, 1.0 ); ( 11, 1.0 | WING | MAIN_BOX, 9, 6, 0, 0.0, 0.0, 1.0 ); ( 11, 1.0 | WING | MAIN_BOX, 10, 6, 0, 0.0, 0.0, 1.0 ); ( 11, 1.0 | WING | MAIN_BOX, 0, 7, 0, 0.0, 0.0, 1.0 ); ( 11, 1.0 | WING | MAIN_BOX, 1, 7, 0, 0.0, 0.0, 1.0 ); ( 11, 1.0 | WING | MAIN_BOX, 2, 7, 0, 0.0, 0.0, 1.0 ); ( 11, 1.0 | WING | MAIN_BOX, 3, 7, 0, 0.0, 0.0, 1.0 ); ( 11, 1.0 | WING | MAIN_BOX, 4, 7, 0, 0.0, 0.0, 1.0 ); ( 11, 1.0 | WING | MAIN_BOX, 5, 7, 0, 0.0, 0.0, 1.0 ); ( 11, 1.0 | WING | MAIN_BOX, 6, 7, 0, 0.0, 0.0, 1.0 ); ( 11, 1.0 | WING | MAIN_BOX, 7, 7, 0, 0.0, 0.0, 1.0 ); ( 11, 1.0 | WING | MAIN_BOX, 8, 7, 0, 0.0, 0.0, 1.0 ); ( 11, 1.0 | WING | MAIN_BOX, 9, 7, 0, 0.0, 0.0, 1.0 ); ( 11, 1.0 | WING | MAIN_BOX, 10, 7, 0, 0.0, 0.0, 1.0 ); ( 11, 1.0 | WING | MAIN_BOX, 0, 8, 0, 0.0, 0.0, 1.0 ); ( 11, 1.0 | WING | MAIN_BOX, 1, 8, 0, 0.0, 0.0, 1.0 ); ( 11, 1.0 | WING | MAIN_BOX, 2, 8, 0, 0.0, 0.0, 1.0 ); ( 11, 1.0 | WING | MAIN_BOX, 3, 8, 0, 0.0, 0.0, 1.0 ); ( 11, 1.0 | WING | MAIN_BOX, 4, 8, 0, 0.0, 0.0, 1.0 ); ( 11, 1.0 | WING | MAIN_BOX, 5, 8, 0, 0.0, 0.0, 1.0 ); ( 11, 1.0 | WING | MAIN_BOX, 6, 8, 0, 0.0, 0.0, 1.0 ); ( 11, 1.0 | WING | MAIN_BOX, 7, 8, 0, 0.0, 0.0, 1.0 ); ( 11, 1.0 | WING | MAIN_BOX, 8, 8, 0, 0.0, 0.0, 1.0 ); ( 11, 1.0 | WING | MAIN_BOX, 9, 8, 0, 0.0, 0.0, 1.0 ); ( 11, 1.0 | WING | MAIN_BOX, 10, 8, 0, 0.0, 0.0, 1.0 ); ( 11, 1.0 | WING | MAIN_BOX, 0, 3, 1, 0.0, 0.0, 1.0 ); ( 11, 1.0 | WING | MAIN_BOX, 1, 3, 1, 0.0, 0.0, 1.0 ); ( 11, 1.0 | WING | MAIN_BOX, 2, 3, 1, 0.0, 0.0, 1.0 ); ( 11, 1.0 | WING | MAIN_BOX, 3, 3, 1, 0.0, 0.0, 1.0 ); ( 11, 1.0 | WING | MAIN_BOX, 4, 3, 1, 0.0, 0.0, 1.0 ); ( 11, 1.0 | WING | MAIN_BOX, 5, 3, 1, 0.0, 0.0, 1.0 ); ( 11, 1.0 | WING | MAIN_BOX, 6, 3, 1, 0.0, 0.0, 1.0 ); ( 11, 1.0 | WING | MAIN_BOX, 7, 3, 1, 0.0, 0.0, 1.0 ); ( 11, 1.0 | WING | MAIN_BOX, 8, 3, 1, 0.0, 0.0, 1.0 ); ( 11, 1.0 | WING | MAIN_BOX, 9, 3, 1, 0.0, 0.0, 1.0 ); ( 11, 1.0 | WING | MAIN_BOX, 10, 3, 1, 0.0, 0.0, 1.0 ); ( 11, 1.0 | WING | MAIN_BOX, 0, 4, 1, 0.0, 0.0, 1.0 ); ( 11, 1.0 | WING | MAIN_BOX, 1, 4, 1, 0.0, 0.0, 1.0 ); ( 11, 1.0 | WING | MAIN_BOX, 2, 4, 1, 0.0, 0.0, 1.0 ); ( 11, 1.0 | WING | MAIN_BOX, 3, 4, 1, 0.0, 0.0, 1.0 ); ( 11, 1.0 | WING | MAIN_BOX, 4, 4, 1, 0.0, 0.0, 1.0 ); ( 11, 1.0 | WING | MAIN_BOX, 5, 4, 1, 0.0, 0.0, 1.0 ); ( 11, 1.0 | WING | MAIN_BOX, 6, 4, 1, 0.0, 0.0, 1.0 ); ( 11, 1.0 | WING | MAIN_BOX, 7, 4, 1, 0.0, 0.0, 1.0 ); ( 11, 1.0 | WING | MAIN_BOX, 8, 4, 1, 0.0, 0.0, 1.0 ); ( 11, 1.0 | WING | MAIN_BOX, 9, 4, 1, 0.0, 0.0, 1.0 ); ( 11, 1.0 | WING | MAIN_BOX, 10, 4, 1, 0.0, 0.0, 1.0 ); ( 11, 1.0 | WING | MAIN_BOX, 0, 5, 1, 0.0, 0.0, 1.0 ); ( 11, 1.0 | WING | MAIN_BOX, 1, 5, 1, 0.0, 0.0, 1.0 ); ( 11, 1.0 | WING | MAIN_BOX, 2, 5, 1, 0.0, 0.0, 1.0 ); ( 11, 1.0 | WING | MAIN_BOX, 3, 5, 1, 0.0, 0.0, 1.0 ); ( 11, 1.0 | WING | MAIN_BOX, 4, 5, 1, 0.0, 0.0, 1.0 ); ( 11, 1.0 | WING | MAIN_BOX, 5, 5, 1, 0.0, 0.0, 1.0 ); ( 11, 1.0 | WING | MAIN_BOX, 6, 5, 1, 0.0, 0.0, 1.0 ); ( 11, 1.0 | WING | MAIN_BOX, 7, 5, 1, 0.0, 0.0, 1.0 ); ( 11, 1.0 | WING | MAIN_BOX, 8, 5, 1, 0.0, 0.0, 1.0 ); ( 11, 1.0 | WING | MAIN_BOX, 9, 5, 1, 0.0, 0.0, 1.0 ); ( 11, 1.0 | WING | MAIN_BOX, 10, 5, 1, 0.0, 0.0, 1.0 ); ( 11, 1.0 | WING | MAIN_BOX, 0, 6, 1, 0.0, 0.0, 1.0 ); ( 11, 1.0 | WING | MAIN_BOX, 1, 6, 1, 0.0, 0.0, 1.0 ); ( 11, 1.0 | WING | MAIN_BOX, 2, 6, 1, 0.0, 0.0, 1.0 ); ( 11, 1.0 | WING | MAIN_BOX, 3, 6, 1, 0.0, 0.0, 1.0 ); ( 11, 1.0 | WING | MAIN_BOX, 4, 6, 1, 0.0, 0.0, 1.0 ); ( 11, 1.0 | WING | MAIN_BOX, 5, 6, 1, 0.0, 0.0, 1.0 ); ( 11, 1.0 | WING | MAIN_BOX, 6, 6, 1, 0.0, 0.0, 1.0 ); ( 11, 1.0 | WING | MAIN_BOX, 7, 6, 1, 0.0, 0.0, 1.0 ); ( 11, 1.0 | WING | MAIN_BOX, 8, 6, 1, 0.0, 0.0, 1.0 ); ( 11, 1.0 | WING | MAIN_BOX, 9, 6, 1, 0.0, 0.0, 1.0 ); ( 11, 1.0 | WING | MAIN_BOX, 10, 6, 1, 0.0, 0.0, 1.0 ); ( 11, 1.0 | WING | MAIN_BOX, 0, 7, 1, 0.0, 0.0, 1.0 ); ( 11, 1.0 | WING | MAIN_BOX, 1, 7, 1, 0.0, 0.0, 1.0 ); ( 11, 1.0 | WING | MAIN_BOX, 2, 7, 1, 0.0, 0.0, 1.0 ); ( 11, 1.0 | WING | MAIN_BOX, 3, 7, 1, 0.0, 0.0, 1.0 ); ( 11, 1.0 | WING | MAIN_BOX, 4, 7, 1, 0.0, 0.0, 1.0 ); ( 11, 1.0 | WING | MAIN_BOX, 5, 7, 1, 0.0, 0.0, 1.0 ); ( 11, 1.0 | WING | MAIN_BOX, 6, 7, 1, 0.0, 0.0, 1.0 ); ( 11, 1.0 | WING | MAIN_BOX, 7, 7, 1, 0.0, 0.0, 1.0 ); ( 11, 1.0 | WING | MAIN_BOX, 8, 7, 1, 0.0, 0.0, 1.0 ); ( 11, 1.0 | WING | MAIN_BOX, 9, 7, 1, 0.0, 0.0, 1.0 ); ( 11, 1.0 | WING | MAIN_BOX, 10, 7, 1, 0.0, 0.0, 1.0 ); ( 11, 1.0 | WING | MAIN_BOX, 0, 8, 1, 0.0, 0.0, 1.0 ); ( 11, 1.0 | WING | MAIN_BOX, 1, 8, 1, 0.0, 0.0, 1.0 ); ( 11, 1.0 | WING | MAIN_BOX, 2, 8, 1, 0.0, 0.0, 1.0 ); ( 11, 1.0 | WING | MAIN_BOX, 3, 8, 1, 0.0, 0.0, 1.0 ); ( 11, 1.0 | WING | MAIN_BOX, 4, 8, 1, 0.0, 0.0, 1.0 ); ( 11, 1.0 | WING | MAIN_BOX, 5, 8, 1, 0.0, 0.0, 1.0 ); ( 11, 1.0 | WING | MAIN_BOX, 6, 8, 1, 0.0, 0.0, 1.0 ); ( 11, 1.0 | WING | MAIN_BOX, 7, 8, 1, 0.0, 0.0, 1.0 ); ( 11, 1.0 | WING | MAIN_BOX, 8, 8, 1, 0.0, 0.0, 1.0 ); ( 11, 1.0 | WING | MAIN_BOX, 9, 8, 1, 0.0, 0.0, 1.0 ); ( 11, 1.0 | WING | MAIN_BOX, 10, 8, 1, 0.0, 0.0, 1.0 )
