%%%%%%%%%%%%%%%%%%%%%%%%%%%%%%%%%%%%%%%%%%%%%%%%%%%%%%%%%%%%%%%%%%%%%%%%%%%%%%%%
%                                                                              %
% Stanford University Unstructured (SU2) configuration file                    %
% Case description: _________________________________________________________  %
% Author: ___________________________________________________________________  %
% Institution: ______________________________________________________________  %
% Date: __________                                                             %
% File Version 1.1.2 October 1st, 2012                                         %
%                                                                              %
%%%%%%%%%%%%%%%%%%%%%%%%%%%%%%%%%%%%%%%%%%%%%%%%%%%%%%%%%%%%%%%%%%%%%%%%%%%%%%%%

% ------------- DIRECT, ADJOINT, AND LINEARIZED PROBLEM DEFINITION ------------%
%
% Physical governing equations (EULER, NAVIER_STOKES,
%                               PLASMA_EULER, PLASMA_NAVIER_STOKES,              
%                               FREE_SURFACE_EULER, FREE_SURFACE_NAVIER_STOKES,
%                               FLUID_STRUCTURE_EULER, FLUID_STRUCTURE_NAVIER_STOKES,
%                               AEROACOUSTIC_EULER, AEROACOUSTIC_NAVIER_STOKES,
%                               WAVE_EQUATION, HEAT_EQUATION, LINEAR_ELASTICITY)              
PHYSICAL_PROBLEM= NAVIER_STOKES
%
% Specify turbulence model (NONE, SA, SST)
KIND_TURB_MODEL= SA
%
% Mathematical problem (DIRECT, ADJOINT, LINEARIZED)
MATH_PROBLEM= DIRECT
%
% Restart solution (NO, YES)
RESTART_SOL= NO

% -------------------- COMPRESSIBLE FREE-STREAM DEFINITION --------------------%
%
% Mach number (non-dimensional, based on the free-stream values)
MACH_NUMBER= 0.75
%
% Angle of attack (degrees, only for compressible flows)
AoA= 0.49
%
% Side-slip angle (degrees, only for compressible flows)
SIDESLIP_ANGLE= 0.0
%
% Free-stream temperature (273.15 K by default)
FREESTREAM_TEMPERATURE= 273
%
% Reynolds number (non-dimensional, based on the free-stream values)
REYNOLDS_NUMBER= 3.0E6
%
% Reynolds length (1 m by default)
REYNOLDS_LENGTH= 0.1412

% -------------- COMPRESSIBLE AND INCOMPRESSIBLE FLUID CONSTANTS --------------%
%
% Ratio of specific heats (1.4 (air), only for compressible flows)
GAMMA_VALUE= 1.4
%
% Specific gas constant (287.87 J/kg*K (air), only for compressible flows)
GAS_CONSTANT= 287.87
%
% Laminar Prandtl number (0.72 (air), only for compressible flows)
PRANDTL_LAM= 0.72
%
% Turbulent Prandtl number (0.9 (air), only for compressible flows)
PRANDTL_TURB= 0.9

% ---------------------- REFERENCE VALUE DEFINITION ---------------------------%
%
% Reference origin for moment computation
REF_ORIGIN_MOMENT_X = 0.1579
REF_ORIGIN_MOMENT_Y = 0.00
REF_ORIGIN_MOMENT_Z = -0.03392
%
% Reference length for pitching, rolling, and yawing non-dimensional moment
REF_LENGTH_MOMENT= 0.1412
%
% Reference area for force coefficients (0 implies automatic calculation)
REF_AREA= 0.0727
%
% Reference pressure (101325.0 N/m^2 by default, only for compressible flows)
REF_PRESSURE= 1.0
%
% Reference temperature (273.15 K by default, only for compressible flows)
REF_TEMPERATURE= 1.0
%
% Reference density (1.2886 Kg/m^3 by default, only for compressible flows)
REF_DENSITY= 1.0
%
% Reference element length for computing the slope limiter epsilon
REF_ELEM_LENGTH= 0.1

% -------------------- BOUNDARY CONDITION DEFINITION --------------------------%
%
% Navier-Stokes wall boundary marker(s) (NONE = no marker)
MARKER_HEATFLUX= ( DLRF6, 0.0 )
%
% Far-field boundary marker(s) (NONE = no marker)
MARKER_FAR= ( Farfield, FarfieldBottom, FarfieldTop, Inlet, outlet )
%
% Symmetry boundary marker(s) (NONE = no marker)
MARKER_SYM= ( symmetryT, symmetryQ )
%
% Marker(s) of the surface to be plotted or designed
MARKER_PLOTTING= ( DLRF6 )
%
% Marker(s) of the surface where the functional (Cd, Cl, etc.) will be evaluated
MARKER_MONITORING= ( DLRF6 )

% ------------- COMMON PARAMETERS DEFINING THE NUMERICAL METHOD ---------------%
%
% Numerical method for spatial gradients (GREEN_GAUSS, WEIGHTED_LEAST_SQUARES)
NUM_METHOD_GRAD= WEIGHTED_LEAST_SQUARES
%
% Courant-Friedrichs-Lewy condition of the finest grid
CFL_NUMBER= 4.0
%
% CFL ramp (factor, number of iterations, CFL limit)
CFL_RAMP= ( 1.0, 50, 2.0 )
%
% Runge-Kutta alpha coefficients
RK_ALPHA_COEFF= ( 0.66667, 0.66667, 1.000000 )
%
% Number of total iterations
EXT_ITER= 1000

% ------------------------ LINEAR SOLVER DEFINITION ---------------------------%
%
% Linear solver for implicit formulations (BCGSTAB, FGMRES)
LINEAR_SOLVER= FGMRES
%
% Preconditioner of the Krylov linear solver (JACOBI, LINELET, LU_SGS)
LINEAR_SOLVER_PREC= LU_SGS
%
% Minimum error of the linear solver for implicit formulations
LINEAR_SOLVER_ERROR= 1E-10
%
% Max number of iterations of the linear solver for the implicit formulation
LINEAR_SOLVER_ITER= 1
%
% Relaxation coefficient
LINEAR_SOLVER_RELAX= 1.0

% -------------------------- MULTIGRID PARAMETERS -----------------------------%
%
% Multi-Grid Levels (0 = no multi-grid)
MGLEVEL= 0
%
% Multi-Grid Cycle (0 = V cycle, 1 = W Cycle)
MGCYCLE= 0
%
% CFL reduction factor on the coarse levels
MG_CFL_REDUCTION= 0.8
%
% Maximum number of children in the agglomeration stage
MAX_CHILDREN= 50
%
% Maximum length of an agglomerated element (relative to the domain)
MAX_DIMENSION= 0.1
%
% Multigrid pre-smoothing level
MG_PRE_SMOOTH= ( 1, 2, 2, 2 )
%
% Multigrid post-smoothing level
MG_POST_SMOOTH= ( 0, 0, 0, 0 )
%
% Jacobi implicit smoothing of the correction
MG_CORRECTION_SMOOTH= ( 0, 0, 0, 0 )
%
% Damping factor for the residual restriction
MG_DAMP_RESTRICTION= 0.85
%
% Damping factor for the correction prolongation
MG_DAMP_PROLONGATION= 0.85
%
% Full Multigrid (NO, YES)
FULLMG= NO
%
% Start up iterations using the fine grid
START_UP_ITER= 0

% -------------------- FLOW NUMERICAL METHOD DEFINITION -----------------------%
%
% Convective numerical method (JST, LAX-FRIEDRICH, ROE, AUSM, HLLC)
CONV_NUM_METHOD_FLOW= JST
%
% Slope limiter (VENKATAKRISHNAN, BARTH)
SLOPE_LIMITER_FLOW= VENKATAKRISHNAN
%
% Coefficient for the limiter (smooth regions)
LIMITER_COEFF= 0.1
%
% 1st, 2nd and 4th order artificial dissipation coefficients
AD_COEFF_FLOW= ( 0.15, 0.5, 0.001 )
%
% Viscous numerical method (AVG_GRAD, AVG_GRAD_CORRECTED, GALERKIN)
VISC_NUM_METHOD_FLOW= AVG_GRAD_CORRECTED
%
% Source term numerical method (PIECEWISE_CONSTANT)
SOUR_NUM_METHOD_FLOW= PIECEWISE_CONSTANT
%
% Time discretization (RUNGE-KUTTA_EXPLICIT, EULER_IMPLICIT, EULER_EXPLICIT)
TIME_DISCRE_FLOW= EULER_IMPLICIT

% -------------------- TURBULENT NUMERICAL METHOD DEFINITION ------------------%
%
% Convective numerical method (SCALAR_UPWIND)
CONV_NUM_METHOD_TURB= SCALAR_UPWIND
%
% Slope limiter (VENKATAKRISHNAN, BARTH)
SLOPE_LIMITER_TURB= VENKATAKRISHNAN
%
% Viscous numerical method (AVG_GRAD, AVG_GRAD_CORRECTED)
VISC_NUM_METHOD_TURB= AVG_GRAD_CORRECTED
%
% Source term numerical method (PIECEWISE_CONSTANT)
SOUR_NUM_METHOD_TURB= PIECEWISE_CONSTANT
%
% Time discretization (EULER_IMPLICIT)
TIME_DISCRE_TURB= EULER_IMPLICIT
%
% Reduction factor of the CFL coefficient in the turbulence problem
CFL_REDUCTION_TURB= 0.25

% ---------------- ADJOINT-FLOW NUMERICAL METHOD DEFINITION -------------------%
% Adjoint problem boundary condition (DRAG, LIFT, SIDEFORCE, MOMENT_X,
%                                     MOMENT_Y, MOMENT_Z, EFFICIENCY, 
%                                     EQUIVALENT_AREA, NEARFIELD_PRESSURE,
%                                     FORCE_X, FORCE_Y, FORCE_Z, THRUST, 
%                                     TORQUE, FREE_SURFACE)
OBJECTIVE_FUNCTION= DRAG
%
% Convective numerical method (JST, LAX-FRIEDRICH, ROE-1ST_ORDER, 
%                              ROE-2ND_ORDER)
CONV_NUM_METHOD_ADJFLOW= JST
%
% Slope limiter (VENKATAKRISHNAN, SHARP_EDGES)
SLOPE_LIMITER_ADJFLOW= VENKATAKRISHNAN
%
% Coefficient for the sharp edges limiter
SHARP_EDGES_COEFF= 0.5
%
% 1st, 2nd, and 4th order artificial dissipation coefficients
AD_COEFF_ADJFLOW= ( 0.15, 0.5, 0.005 )
%
% Viscous numerical method (AVG_GRAD, AVG_GRAD_CORRECTED, GALERKIN)
VISC_NUM_METHOD_ADJFLOW= AVG_GRAD
%
% Source term numerical method (PIECEWISE_CONSTANT)
SOUR_NUM_METHOD_ADJFLOW= PIECEWISE_CONSTANT
%
% Time discretization (RUNGE-KUTTA_EXPLICIT, EULER_IMPLICIT)
TIME_DISCRE_ADJFLOW= EULER_IMPLICIT
%
% Reduction factor of the CFL coefficient in the adjoint problem
CFL_REDUCTION_ADJFLOW= 0.8
%
% Limit value for the adjoint variable
LIMIT_ADJFLOW= 1E6
%
% Remove sharp edges from the sensitivity evaluation (NO, YES)
SENS_REMOVE_SHARP= NO
%
% Adjoint frozen viscosity (NO, YES)
FROZEN_VISC= YES

% --------------------------- PARTITIONING STRATEGY ---------------------------%
% Write a tecplot/paraview file for each partition (NO, YES)
VISUALIZE_PART= NO

% ------------------------ GRID DEFORMATION PARAMETERS ------------------------%
%
% Kind of deformation (NO_DEFORMATION, HICKS_HENNE, PARABOLIC, NACA_4DIGITS, 
%                      DISPLACEMENT, ROTATION, FFD_CONTROL_POINT, 
%                      FFD_DIHEDRAL_ANGLE, FFD_TWIST_ANGLE, 
%                      FFD_ROTATION, FFD_CAMBER, FFD_THICKNESS, FFD_VOLUME)
DV_KIND= FFD_SETTING
%
% Marker of the surface in which we are going apply the shape deformation
DV_MARKER= ( DLRF6 )
%
% Parameters of the shape deformation 
% 	- FFD_CONTROL_POINT ( Chunk ID, i_Ind, j_Ind, k_Ind, x_Disp, y_Disp, z_Disp )
% 	- FFD_DIHEDRAL_ANGLE ( Chunk ID, x_Orig, y_Orig, z_Orig, x_End, y_End, z_End )
% 	- FFD_TWIST_ANGLE ( Chunk ID, x_Orig, y_Orig, z_Orig, x_End, y_End, z_End )
% 	- FFD_ROTATION ( Chunk ID, x_Orig, y_Orig, z_Orig, x_End, y_End, z_End )
% 	- FFD_CAMBER ( Chunk ID, i_Ind, j_Ind )
% 	- FFD_THICKNESS ( Chunk ID, i_Ind, j_Ind )
% 	- FFD_VOLUME ( Chunk ID, i_Ind, j_Ind )
DV_PARAM= ( 1, 0.5 )
%
% New value of the shape deformation
DV_VALUE= 0.01


% ------------------------ GRID DEFORMATION PARAMETERS ------------------------%
%
% Divide rectangles into triangles (NO, YES)
DIVIDE_ELEMENTS= YES
%
% Visualize the deformation (NO, YES)
VISUALIZE_DEFORMATION= NO

% --------------------------- CONVERGENCE PARAMETERS --------------------------%
%
% Convergence criteria (CAUCHY, RESIDUAL)
%
CONV_CRITERIA= RESIDUAL
%
% Residual reduction (order of magnitude with respect to the initial value)
RESIDUAL_REDUCTION= 12
%
% Min value of the residual (log10 of the residual)
RESIDUAL_MINVAL= -12
%
% Start convergence criteria at iteration number
STARTCONV_ITER= 10
%
% Number of elements to apply the criteria
CAUCHY_ELEMS= 100
%
% Epsilon to control the series convergence
CAUCHY_EPS= 1E-10
%
% Function to apply the criteria (LIFT, DRAG, NEARFIELD_PRESS, SENS_GEOMETRY, 
% 	      	    		 SENS_MACH, DELTA_LIFT, DELTA_DRAG)
CAUCHY_FUNC_FLOW= DRAG
CAUCHY_FUNC_ADJFLOW= SENS_GEOMETRY
%
% Epsilon for full multigrid method evaluation
FULLMG_CAUCHY_EPS= 1E-4

% ------------------------- INPUT/OUTPUT INFORMATION --------------------------%
%
% Mesh input file
MESH_FILENAME= dlr_f6_no_fairing_coarse_FFD.su2
%
% Mesh input file format (SU2, CGNS, NETCDF_ASCII)
MESH_FORMAT= SU2
%
% Convert a CGNS mesh to SU2 format (YES, NO)
CGNS_TO_SU2= NO
%
% Mesh output file
MESH_OUT_FILENAME= mesh_out.su2
%
% Restart flow input file
SOLUTION_FLOW_FILENAME= solution_flow.dat
%
% Restart adjoint input file
SOLUTION_ADJ_FILENAME= solution_adj.dat
%
% Output file format (PARAVIEW, TECPLOT, STL)
OUTPUT_FORMAT= TECPLOT
%
% Output file convergence history (w/o extension) 
CONV_FILENAME= history
%
% Output file restart flow
RESTART_FLOW_FILENAME= restart_flow.dat
%
% Output file restart adjoint
RESTART_ADJ_FILENAME= restart_adj.dat
%
% Output file flow (w/o extension) variables
VOLUME_FLOW_FILENAME= flow
%
% Output file adjoint (w/o extension) variables
VOLUME_ADJ_FILENAME= adjoint
%
% Output objective function gradient (using continuous adjoint)
GRAD_OBJFUNC_FILENAME= of_grad.dat
%
% Output file surface flow coefficient (w/o extension)
SURFACE_FLOW_FILENAME= surface_flow
%
% Output file surface adjoint coefficient (w/o extension)
SURFACE_ADJ_FILENAME= surface_adjoint
%
% Output file surface linear coefficient (w/o extension)
SURFACE_LIN_FILENAME= surface_linear
%
% Writing solution file frequency
WRT_SOL_FREQ= 1000
%
% Writing convergence history frequency
WRT_CON_FREQ= 1

% --------------------- OPTIMAL SHAPE DESIGN DEFINITION -----------------------%
% Available flow based objective functions or constraint functions
%    DRAG, LIFT, SIDEFORCE, EFFICIENCY,
%    FORCE_X, FORCE_Y, FORCE_Z,
%    MOMENT_X, MOMENT_Y, MOMENT_Z,
%    THRUST, TORQUE, FIGURE_OF_MERIT,
%    EQUIVALENT_AREA, NEARFIELD_PRESSURE,
%    FREE_SURFACE
%
% Available geometrical based objective functions or constraint functions
%    MAX_THICKNESS, 1/4_THICKNESS, 1/2_THICKNESS, 3/4_THICKNESS, AREA, AOA, CHORD, 
%    MAX_THICKNESS_SEC1, MAX_THICKNESS_SEC2, MAX_THICKNESS_SEC3, MAX_THICKNESS_SEC4, MAX_THICKNESS_SEC5, 
%    1/4_THICKNESS_SEC1, 1/4_THICKNESS_SEC2, 1/4_THICKNESS_SEC3, 1/4_THICKNESS_SEC4, 1/4_THICKNESS_SEC5, 
%    1/2_THICKNESS_SEC1, 1/2_THICKNESS_SEC2, 1/2_THICKNESS_SEC3, 1/2_THICKNESS_SEC4, 1/2_THICKNESS_SEC5, 
%    3/4_THICKNESS_SEC1, 3/4_THICKNESS_SEC2, 3/4_THICKNESS_SEC3, 3/4_THICKNESS_SEC4, 3/4_THICKNESS_SEC5, 
%    AREA_SEC1, AREA_SEC2, AREA_SEC3, AREA_SEC4, AREA_SEC5, 
%    AOA_SEC1, AOA_SEC2, AOA_SEC3, AOA_SEC4, AOA_SEC5, 
%    CHORD_SEC1, CHORD_SEC2, CHORD_SEC3, CHORD_SEC4, CHORD_SEC5
%
% Available design variables
%    HICKS_HENNE 	(  1, Scale | Mark. List | Lower(0)/Upper(1) side, x_Loc )
%    COSINE_BUMP	(  2, Scale | Mark. List | Lower(0)/Upper(1) side, x_Loc, x_Size )
%    SPHERICAL		(  3, Scale | Mark. List | ControlPoint_Index, Theta_Disp, R_Disp )
%    NACA_4DIGITS	(  4, Scale | Mark. List |  1st digit, 2nd digit, 3rd and 4th digit )
%    DISPLACEMENT	(  5, Scale | Mark. List | x_Disp, y_Disp, z_Disp )
%    ROTATION		(  6, Scale | Mark. List | x_Axis, y_Axis, z_Axis, x_Turn, y_Turn, z_Turn )
%    FFD_CONTROL_POINT	(  7, Scale | Mark. List | Chunk, i_Ind, j_Ind, k_Ind, x_Mov, y_Mov, z_Mov )
%    FFD_DIHEDRAL_ANGLE	(  8, Scale | Mark. List | Chunk, x_Orig, y_Orig, z_Orig, x_End, y_End, z_End )
%    FFD_TWIST_ANGLE 	(  9, Scale | Mark. List | Chunk, x_Orig, y_Orig, z_Orig, x_End, y_End, z_End )
%    FFD_ROTATION 	( 10, Scale | Mark. List | Chunk, x_Orig, y_Orig, z_Orig, x_End, y_End, z_End )
%    FFD_CAMBER 	( 11, Scale | Mark. List | Chunk, i_Ind, j_Ind )
%    FFD_THICKNESS 	( 12, Scale | Mark. List | Chunk, i_Ind, j_Ind )
%    FFD_VOLUME 	( 13, Scale | Mark. List | Chunk, i_Ind, j_Ind )
%    FOURIER 		( 14, Scale | Mark. List | Lower(0)/Upper(1) side, index, cos(0)/sin(1) )
%
% Optimization objective function with scaling factor
% ex= Objective * Scale
OPT_OBJECTIVE= DRAG * 0.1
%
% Optimization constraint functions with scaling factors, separated by semicolons
% ex= (Objective = Value ) * Scale, use '>','<','='
OPT_CONSTRAINT= NONE
%OPT_CONSTRAINT= (LIFT > 0.5) * 0.1;
%
% Optimization design variables, separated by semicolons
DEFINITION_DV= ( 7, 1.0 | DLRF6 | 0, 0, 1, 0, 0.0, 0.0, 1.0 ); ( 7, 1.0 | DLRF6 | 0, 1, 1, 0, 0.0, 0.0, 1.0 ); ( 7, 1.0 | DLRF6 | 0, 2, 1, 0, 0.0, 0.0, 1.0 ); ( 7, 1.0 | DLRF6 | 0, 3, 1, 0, 0.0, 0.0, 1.0 ); ( 7, 1.0 | DLRF6 | 0, 4, 1, 0, 0.0, 0.0, 1.0 );  ( 7, 1.0 | DLRF6 | 0, 5, 1, 0, 0.0, 0.0, 1.0 ); ( 7, 1.0 | DLRF6 | 0, 6, 1, 0, 0.0, 0.0, 1.0 ); ( 7, 1.0 | DLRF6 | 0, 7, 1, 0, 0.0, 0.0, 1.0 ); ( 7, 1.0 | DLRF6 | 0, 0, 2, 0, 0.0, 0.0, 1.0 ); ( 7, 1.0 | DLRF6 | 0, 1, 2, 0, 0.0, 0.0, 1.0 ); ( 7, 1.0 | DLRF6 | 0, 2, 2, 0, 0.0, 0.0, 1.0 ); ( 7, 1.0 | DLRF6 | 0, 3, 2, 0, 0.0, 0.0, 1.0 ); ( 7, 1.0 | DLRF6 | 0, 4, 2, 0, 0.0, 0.0, 1.0 );  ( 7, 1.0 | DLRF6 | 0, 5, 2, 0, 0.0, 0.0, 1.0 ); ( 7, 1.0 | DLRF6 | 0, 6, 2, 0, 0.0, 0.0, 1.0 ); ( 7, 1.0 | DLRF6 | 0, 7, 2, 0, 0.0, 0.0, 1.0 ); ( 7, 1.0 | DLRF6 | 0, 0, 3, 0, 0.0, 0.0, 1.0 ); ( 7, 1.0 | DLRF6 | 0, 1, 3, 0, 0.0, 0.0, 1.0 ); ( 7, 1.0 | DLRF6 | 0, 2, 3, 0, 0.0, 0.0, 1.0 ); ( 7, 1.0 | DLRF6 | 0, 3, 3, 0, 0.0, 0.0, 1.0 ); ( 7, 1.0 | DLRF6 | 0, 4, 3, 0, 0.0, 0.0, 1.0 );  ( 7, 1.0 | DLRF6 | 0, 5, 3, 0, 0.0, 0.0, 1.0 ); ( 7, 1.0 | DLRF6 | 0, 6, 3, 0, 0.0, 0.0, 1.0 ); ( 7, 1.0 | DLRF6 | 0, 7, 3, 0, 0.0, 0.0, 1.0 ); ( 7, 1.0 | DLRF6 | 0, 0, 4, 0, 0.0, 0.0, 1.0 ); ( 7, 1.0 | DLRF6 | 0, 1, 4, 0, 0.0, 0.0, 1.0 ); ( 7, 1.0 | DLRF6 | 0, 2, 4, 0, 0.0, 0.0, 1.0 ); ( 7, 1.0 | DLRF6 | 0, 3, 4, 0, 0.0, 0.0, 1.0 ); ( 7, 1.0 | DLRF6 | 0, 4, 4, 0, 0.0, 0.0, 1.0 );  ( 7, 1.0 | DLRF6 | 0, 5, 4, 0, 0.0, 0.0, 1.0 ); ( 7, 1.0 | DLRF6 | 0, 6, 4, 0, 0.0, 0.0, 1.0 ); ( 7, 1.0 | DLRF6 | 0, 7, 4, 0, 0.0, 0.0, 1.0 ); ( 7, 1.0 | DLRF6 | 0, 0, 5, 0, 0.0, 0.0, 1.0 ); ( 7, 1.0 | DLRF6 | 0, 1, 5, 0, 0.0, 0.0, 1.0 ); ( 7, 1.0 | DLRF6 | 0, 2, 5, 0, 0.0, 0.0, 1.0 ); ( 7, 1.0 | DLRF6 | 0, 3, 5, 0, 0.0, 0.0, 1.0 ); ( 7, 1.0 | DLRF6 | 0, 4, 5, 0, 0.0, 0.0, 1.0 );  ( 7, 1.0 | DLRF6 | 0, 5, 5, 0, 0.0, 0.0, 1.0 ); ( 7, 1.0 | DLRF6 | 0, 6, 5, 0, 0.0, 0.0, 1.0 ); ( 7, 1.0 | DLRF6 | 0, 7, 5, 0, 0.0, 0.0, 1.0 );( 7, 1.0 | DLRF6 | 0, 0, 1, 1, 0.0, 0.0, 1.0 ); ( 7, 1.0 | DLRF6 | 0, 1, 1, 1, 0.0, 0.0, 1.0 ); ( 7, 1.0 | DLRF6 | 0, 2, 1, 1, 0.0, 0.0, 1.0 ); ( 7, 1.0 | DLRF6 | 0, 3, 1, 1, 0.0, 0.0, 1.0 ); ( 7, 1.0 | DLRF6 | 0, 4, 1, 1, 0.0, 0.0, 1.0 );  ( 7, 1.0 | DLRF6 | 0, 5, 1, 1, 0.0, 0.0, 1.0 ); ( 7, 1.0 | DLRF6 | 0, 6, 1, 1, 0.0, 0.0, 1.0 ); ( 7, 1.0 | DLRF6 | 0, 7, 1, 1, 0.0, 0.0, 1.0 ); ( 7, 1.0 | DLRF6 | 0, 0, 2, 1, 0.0, 0.0, 1.0 ); ( 7, 1.0 | DLRF6 | 0, 1, 2, 1, 0.0, 0.0, 1.0 ); ( 7, 1.0 | DLRF6 | 0, 2, 2, 1, 0.0, 0.0, 1.0 ); ( 7, 1.0 | DLRF6 | 0, 3, 2, 1, 0.0, 0.0, 1.0 ); ( 7, 1.0 | DLRF6 | 0, 4, 2, 1, 0.0, 0.0, 1.0 );  ( 7, 1.0 | DLRF6 | 0, 5, 2, 1, 0.0, 0.0, 1.0 ); ( 7, 1.0 | DLRF6 | 0, 6, 2, 1, 0.0, 0.0, 1.0 ); ( 7, 1.0 | DLRF6 | 0, 7, 2, 1, 0.0, 0.0, 1.0 ); ( 7, 1.0 | DLRF6 | 0, 0, 3, 1, 0.0, 0.0, 1.0 ); ( 7, 1.0 | DLRF6 | 0, 1, 3, 1, 0.0, 0.0, 1.0 ); ( 7, 1.0 | DLRF6 | 0, 2, 3, 1, 0.0, 0.0, 1.0 ); ( 7, 1.0 | DLRF6 | 0, 3, 3, 1, 0.0, 0.0, 1.0 ); ( 7, 1.0 | DLRF6 | 0, 4, 3, 1, 0.0, 0.0, 1.0 );  ( 7, 1.0 | DLRF6 | 0, 5, 3, 1, 0.0, 0.0, 1.0 ); ( 7, 1.0 | DLRF6 | 0, 6, 3, 1, 0.0, 0.0, 1.0 ); ( 7, 1.0 | DLRF6 | 0, 7, 3, 1, 0.0, 0.0, 1.0 ); ( 7, 1.0 | DLRF6 | 0, 0, 4, 1, 0.0, 0.0, 1.0 ); ( 7, 1.0 | DLRF6 | 0, 1, 4, 1, 0.0, 0.0, 1.0 ); ( 7, 1.0 | DLRF6 | 0, 2, 4, 1, 0.0, 0.0, 1.0 ); ( 7, 1.0 | DLRF6 | 0, 3, 4, 1, 0.0, 0.0, 1.0 ); ( 7, 1.0 | DLRF6 | 0, 4, 4, 1, 0.0, 0.0, 1.0 );  ( 7, 1.0 | DLRF6 | 0, 5, 4, 1, 0.0, 0.0, 1.0 ); ( 7, 1.0 | DLRF6 | 0, 6, 4, 1, 0.0, 0.0, 1.0 ); ( 7, 1.0 | DLRF6 | 0, 7, 4, 1, 0.0, 0.0, 1.0 ); ( 7, 1.0 | DLRF6 | 0, 0, 5, 1, 0.0, 0.0, 1.0 ); ( 7, 1.0 | DLRF6 | 0, 1, 5, 1, 0.0, 0.0, 1.0 ); ( 7, 1.0 | DLRF6 | 0, 2, 5, 1, 0.0, 0.0, 1.0 ); ( 7, 1.0 | DLRF6 | 0, 3, 5, 1, 0.0, 0.0, 1.0 ); ( 7, 1.0 | DLRF6 | 0, 4, 5, 1, 0.0, 0.0, 1.0 );  ( 7, 1.0 | DLRF6 | 0, 5, 5, 1, 0.0, 0.0, 1.0 ); ( 7, 1.0 | DLRF6 | 0, 6, 5, 1, 0.0, 0.0, 1.0 ); ( 7, 1.0 | DLRF6 | 0, 7, 5, 1, 0.0, 0.0, 1.0 )

% DEFINITION_DV= ( 7, 1.0 | DLRF6 | 0, 0, 1, 0, 0.0, 0.0, 1.0 ); ( 7, 1.0 | DLRF6 | 0, 1, 1, 0, 0.0, 0.0, 1.0 ); ( 7, 1.0 | DLRF6 | 0, 2, 1, 0, 0.0, 0.0, 1.0 ); ( 7, 1.0 | DLRF6 | 0, 3, 1, 0, 0.0, 0.0, 1.0 ); ( 7, 1.0 | DLRF6 | 0, 4, 1, 0, 0.0, 0.0, 1.0 );  ( 7, 1.0 | DLRF6 | 0, 5, 1, 0, 0.0, 0.0, 1.0 ); ( 7, 1.0 | DLRF6 | 0, 6, 1, 0, 0.0, 0.0, 1.0 ); ( 7, 1.0 | DLRF6 | 0, 7, 1, 0, 0.0, 0.0, 1.0 ); ( 7, 1.0 | DLRF6 | 0, 0, 2, 0, 0.0, 0.0, 1.0 ); ( 7, 1.0 | DLRF6 | 0, 1, 2, 0, 0.0, 0.0, 1.0 ); ( 7, 1.0 | DLRF6 | 0, 2, 2, 0, 0.0, 0.0, 1.0 ); ( 7, 1.0 | DLRF6 | 0, 3, 2, 0, 0.0, 0.0, 1.0 ); ( 7, 1.0 | DLRF6 | 0, 4, 2, 0, 0.0, 0.0, 1.0 );  ( 7, 1.0 | DLRF6 | 0, 5, 2, 0, 0.0, 0.0, 1.0 ); ( 7, 1.0 | DLRF6 | 0, 6, 2, 0, 0.0, 0.0, 1.0 ); ( 7, 1.0 | DLRF6 | 0, 7, 2, 0, 0.0, 0.0, 1.0 ); ( 7, 1.0 | DLRF6 | 0, 0, 3, 0, 0.0, 0.0, 1.0 ); ( 7, 1.0 | DLRF6 | 0, 1, 3, 0, 0.0, 0.0, 1.0 ); ( 7, 1.0 | DLRF6 | 0, 2, 3, 0, 0.0, 0.0, 1.0 ); ( 7, 1.0 | DLRF6 | 0, 3, 3, 0, 0.0, 0.0, 1.0 ); ( 7, 1.0 | DLRF6 | 0, 4, 3, 0, 0.0, 0.0, 1.0 );  ( 7, 1.0 | DLRF6 | 0, 5, 3, 0, 0.0, 0.0, 1.0 ); ( 7, 1.0 | DLRF6 | 0, 6, 3, 0, 0.0, 0.0, 1.0 ); ( 7, 1.0 | DLRF6 | 0, 7, 3, 0, 0.0, 0.0, 1.0 ); ( 7, 1.0 | DLRF6 | 0, 0, 4, 0, 0.0, 0.0, 1.0 ); ( 7, 1.0 | DLRF6 | 0, 1, 4, 0, 0.0, 0.0, 1.0 ); ( 7, 1.0 | DLRF6 | 0, 2, 4, 0, 0.0, 0.0, 1.0 ); ( 7, 1.0 | DLRF6 | 0, 3, 4, 0, 0.0, 0.0, 1.0 ); ( 7, 1.0 | DLRF6 | 0, 4, 4, 0, 0.0, 0.0, 1.0 );  ( 7, 1.0 | DLRF6 | 0, 5, 4, 0, 0.0, 0.0, 1.0 ); ( 7, 1.0 | DLRF6 | 0, 6, 4, 0, 0.0, 0.0, 1.0 ); ( 7, 1.0 | DLRF6 | 0, 7, 4, 0, 0.0, 0.0, 1.0 ); ( 7, 1.0 | DLRF6 | 0, 0, 5, 0, 0.0, 0.0, 1.0 ); ( 7, 1.0 | DLRF6 | 0, 1, 5, 0, 0.0, 0.0, 1.0 ); ( 7, 1.0 | DLRF6 | 0, 2, 5, 0, 0.0, 0.0, 1.0 ); ( 7, 1.0 | DLRF6 | 0, 3, 5, 0, 0.0, 0.0, 1.0 ); ( 7, 1.0 | DLRF6 | 0, 4, 5, 0, 0.0, 0.0, 1.0 );  ( 7, 1.0 | DLRF6 | 0, 5, 5, 0, 0.0, 0.0, 1.0 ); ( 7, 1.0 | DLRF6 | 0, 6, 5, 0, 0.0, 0.0, 1.0 ); ( 7, 1.0 | DLRF6 | 0, 7, 5, 0, 0.0, 0.0, 1.0 ); ( 7, 1.0 | DLRF6 | 0, 0, 6, 0, 0.0, 0.0, 1.0 ); ( 7, 1.0 | DLRF6 | 0, 1, 6, 0, 0.0, 0.0, 1.0 ); ( 7, 1.0 | DLRF6 | 0, 2, 6, 0, 0.0, 0.0, 1.0 ); ( 7, 1.0 | DLRF6 | 0, 3, 6, 0, 0.0, 0.0, 1.0 ); ( 7, 1.0 | DLRF6 | 0, 4, 6, 0, 0.0, 0.0, 1.0 );  ( 7, 1.0 | DLRF6 | 0, 5, 6, 0, 0.0, 0.0, 1.0 ); ( 7, 1.0 | DLRF6 | 0, 6, 6, 0, 0.0, 0.0, 1.0 ); ( 7, 1.0 | DLRF6 | 0, 7, 6, 0, 0.0, 0.0, 1.0 );( 7, 1.0 | DLRF6 | 0, 0, 1, 1, 0.0, 0.0, 1.0 ); ( 7, 1.0 | DLRF6 | 0, 1, 1, 1, 0.0, 0.0, 1.0 ); ( 7, 1.0 | DLRF6 | 0, 2, 1, 1, 0.0, 0.0, 1.0 ); ( 7, 1.0 | DLRF6 | 0, 3, 1, 1, 0.0, 0.0, 1.0 ); ( 7, 1.0 | DLRF6 | 0, 4, 1, 1, 0.0, 0.0, 1.0 );  ( 7, 1.0 | DLRF6 | 0, 5, 1, 1, 0.0, 0.0, 1.0 ); ( 7, 1.0 | DLRF6 | 0, 6, 1, 1, 0.0, 0.0, 1.0 ); ( 7, 1.0 | DLRF6 | 0, 7, 1, 1, 0.0, 0.0, 1.0 ); ( 7, 1.0 | DLRF6 | 0, 0, 2, 1, 0.0, 0.0, 1.0 ); ( 7, 1.0 | DLRF6 | 0, 1, 2, 1, 0.0, 0.0, 1.0 ); ( 7, 1.0 | DLRF6 | 0, 2, 2, 1, 0.0, 0.0, 1.0 ); ( 7, 1.0 | DLRF6 | 0, 3, 2, 1, 0.0, 0.0, 1.0 ); ( 7, 1.0 | DLRF6 | 0, 4, 2, 1, 0.0, 0.0, 1.0 );  ( 7, 1.0 | DLRF6 | 0, 5, 2, 1, 0.0, 0.0, 1.0 ); ( 7, 1.0 | DLRF6 | 0, 6, 2, 1, 0.0, 0.0, 1.0 ); ( 7, 1.0 | DLRF6 | 0, 7, 2, 1, 0.0, 0.0, 1.0 ); ( 7, 1.0 | DLRF6 | 0, 0, 3, 1, 0.0, 0.0, 1.0 ); ( 7, 1.0 | DLRF6 | 0, 1, 3, 1, 0.0, 0.0, 1.0 ); ( 7, 1.0 | DLRF6 | 0, 2, 3, 1, 0.0, 0.0, 1.0 ); ( 7, 1.0 | DLRF6 | 0, 3, 3, 1, 0.0, 0.0, 1.0 ); ( 7, 1.0 | DLRF6 | 0, 4, 3, 1, 0.0, 0.0, 1.0 );  ( 7, 1.0 | DLRF6 | 0, 5, 3, 1, 0.0, 0.0, 1.0 ); ( 7, 1.0 | DLRF6 | 0, 6, 3, 1, 0.0, 0.0, 1.0 ); ( 7, 1.0 | DLRF6 | 0, 7, 3, 1, 0.0, 0.0, 1.0 ); ( 7, 1.0 | DLRF6 | 0, 0, 4, 1, 0.0, 0.0, 1.0 ); ( 7, 1.0 | DLRF6 | 0, 1, 4, 1, 0.0, 0.0, 1.0 ); ( 7, 1.0 | DLRF6 | 0, 2, 4, 1, 0.0, 0.0, 1.0 ); ( 7, 1.0 | DLRF6 | 0, 3, 4, 1, 0.0, 0.0, 1.0 ); ( 7, 1.0 | DLRF6 | 0, 4, 4, 1, 0.0, 0.0, 1.0 );  ( 7, 1.0 | DLRF6 | 0, 5, 4, 1, 0.0, 0.0, 1.0 ); ( 7, 1.0 | DLRF6 | 0, 6, 4, 1, 0.0, 0.0, 1.0 ); ( 7, 1.0 | DLRF6 | 0, 7, 4, 1, 0.0, 0.0, 1.0 ); ( 7, 1.0 | DLRF6 | 0, 0, 5, 1, 0.0, 0.0, 1.0 ); ( 7, 1.0 | DLRF6 | 0, 1, 5, 1, 0.0, 0.0, 1.0 ); ( 7, 1.0 | DLRF6 | 0, 2, 5, 1, 0.0, 0.0, 1.0 ); ( 7, 1.0 | DLRF6 | 0, 3, 5, 1, 0.0, 0.0, 1.0 ); ( 7, 1.0 | DLRF6 | 0, 4, 5, 1, 0.0, 0.0, 1.0 );  ( 7, 1.0 | DLRF6 | 0, 5, 5, 1, 0.0, 0.0, 1.0 ); ( 7, 1.0 | DLRF6 | 0, 6, 5, 1, 0.0, 0.0, 1.0 ); ( 7, 1.0 | DLRF6 | 0, 7, 5, 1, 0.0, 0.0, 1.0 ); ( 7, 1.0 | DLRF6 | 0, 0, 6, 1, 0.0, 0.0, 1.0 ); ( 7, 1.0 | DLRF6 | 0, 1, 6, 1, 0.0, 0.0, 1.0 ); ( 7, 1.0 | DLRF6 | 0, 2, 6, 1, 0.0, 0.0, 1.0 ); ( 7, 1.0 | DLRF6 | 0, 3, 6, 1, 0.0, 0.0, 1.0 ); ( 7, 1.0 | DLRF6 | 0, 4, 6, 1, 0.0, 0.0, 1.0 );  ( 7, 1.0 | DLRF6 | 0, 5, 6, 1, 0.0, 0.0, 1.0 ); ( 7, 1.0 | DLRF6 | 0, 6, 6, 1, 0.0, 0.0, 1.0 ); ( 7, 1.0 | DLRF6 | 0, 7, 6, 1, 0.0, 0.0, 1.0 ) 
