%%%%%%%%%%%%%%%%%%%%%%%%%%%%%%%%%%%%%%%%%%%%%%%%%%%%%%%%%%%%%%%%%%%%%%%%%%%%%%%%
% SU2 configuration file                                                       %
% Case description: Laminar premixed flame stabilized on isothermal burner     %
% Author: Nijso Beishuizen                                                     %
% Institution: Bosch Thermotechnology                                          %
% Date: 16/06/2023                                                             %
% File Version 8.0.0 "Harrier"                                                 %
%                                                                              %
%%%%%%%%%%%%%%%%%%%%%%%%%%%%%%%%%%%%%%%%%%%%%%%%%%%%%%%%%%%%%%%%%%%%%%%%%%%%%%%%
%
% ------------- DIRECT, ADJOINT, AND LINEARIZED PROBLEM DEFINITION ------------%
%
SOLVER = INC_NAVIER_STOKES
KIND_TURB_MODEL= NONE
MATH_PROBLEM= DIRECT
RESTART_SOL= YES
%
% ---------------- INCOMPRESSIBLE FLOW CONDITION DEFINITION -------------------%
%
INC_DENSITY_MODEL= VARIABLE
INC_ENERGY_EQUATION = YES
INC_DENSITY_INIT= 1.00
INC_VELOCITY_INIT= (0.7, 0.0, 0.0 )
INC_TEMPERATURE_INIT= 300.0
INC_NONDIM= DIMENSIONAL
%
% -------------------- FLUID MODEL --------------------------------------- %
%
FLUID_MODEL= FLUID_FLAMELET
FILENAMES_INTERPOLATOR= (LUT_methane_3D.drg)
% FGM controlling variable names (must include mixture fraction for partial 
% premixed cases)
CONTROLLING_VARIABLE_NAMES=(ProgressVariable,EnthalpyTot,MixtureFraction)

CONTROLLING_VARIABLE_SOURCE_NAMES=(ProdRateTot_PV,NULL,NULL)
% -------------------- SCALAR TRANSPORT ---------------------------------------%
%
KIND_SCALAR_MODEL= FLAMELET      
DIFFUSIVITY_MODEL= FLAMELET
VISCOSITY_MODEL= FLAMELET
CONDUCTIVITY_MODEL= FLAMELET
FLAME_INIT= (0.003, 0.00, 0.00, 1.0, 0.0, 0.0, 1e-4, 1.0)
% # progvar, enthalpy, mixture fraction, Y-CO, Y-CO2
SPECIES_INIT = (0.0,	-253498.718914723, 0.05, 0.0, 0.0)
CONV_NUM_METHOD_SPECIES= BOUNDED_SCALAR
MUSCL_SPECIES= YES
SLOPE_LIMITER_SPECIES= NONE
TIME_DISCRE_SPECIES= EULER_IMPLICIT
% SCALAR CLIPPING
SPECIES_CLIPPING= YES
SPECIES_CLIPPING_MIN= 0 -3.0e6 0 0 0
SPECIES_CLIPPING_MAX= 0.3 2e6 1 1 1
%
MARKER_INLET_SPECIES = (inlet_rich, 0.0,	-253498.718914723, 0.06, 0.0, 0.0,\
                        inlet_lean, 0.0,	-253498.718914723, 0.04, 0.0, 0.0) 
CFL_REDUCTION_SPECIES= 1.0
MARKER_SPECIES_STRONG_BC= (inlet_rich,inlet_lean, burner_wall, hex_wall)
LOOKUP_NAMES = (MolarWeightMix, Conductivity, Cp, ProdRateTot_PV)
USER_SCALAR_NAMES= (CO, CO2)
USER_SOURCE_NAMES = ( \
    ProdRateTot_Y-CO,  NULL  ,\
    ProdRateTot_Y-CO2, NULL
)
%
% ---------------------- REFERENCE VALUE DEFINITION ---------------------------%
%
REF_ORIGIN_MOMENT_X = 0.25
REF_ORIGIN_MOMENT_Y = 0.00
REF_ORIGIN_MOMENT_Z = 0.00
REF_LENGTH= 1.0
REF_AREA= 1.0
%
% -------------------- BOUNDARY CONDITION DEFINITION --------------------------%
%
MARKER_ISOTHERMAL= (burner_wall, 400, hex_wall, 500)
MARKER_HEATFLUX= (mixing_edge, 0.0)
MARKER_SYM= (sides)
INC_INLET_TYPE= VELOCITY_INLET,VELOCITY_INLET
MARKER_INLET = (inlet_rich, 300.000, 0.3, 1.0, 0.0, 0.0,\
                inlet_lean, 300.000, 0.25, 1.0, 0.0, 0.0)
INC_OUTLET_TYPE= PRESSURE_OUTLET
INC_INLET_DAMPING = 0.05
INC_OUTLET_DAMPING = 0.05
MARKER_OUTLET= (outlet, 0.0)
%
% ------------- COMMON PARAMETERS DEFINING THE NUMERICAL METHOD ---------------%
%
NUM_METHOD_GRAD= WEIGHTED_LEAST_SQUARES
CFL_NUMBER= 20
CFL_ADAPT= NO
ITER= 10
OUTPUT_WRT_FREQ= 20
%
% ------------------------ LINEAR SOLVER DEFINITION ---------------------------%
%
LINEAR_SOLVER= FGMRES
LINEAR_SOLVER_PREC= ILU
LINEAR_SOLVER_ERROR= 1E-03
LINEAR_SOLVER_ITER= 10
%
% -------------------------- MULTIGRID PARAMETERS -----------------------------%
%
MGLEVEL= 0
%
% -------------------- FLOW NUMERICAL METHOD DEFINITION -----------------------%
%
CONV_NUM_METHOD_FLOW= FDS
MUSCL_FLOW= YES
SLOPE_LIMITER_FLOW = NONE
TIME_DISCRE_FLOW= EULER_IMPLICIT
%
% --------------------------- CONVERGENCE PARAMETERS --------------------------%
%
CONV_RESIDUAL_MINVAL= -15
CONV_STARTITER= 10
CONV_CAUCHY_ELEMS= 100
CONV_CAUCHY_EPS= 1E-6
SCREEN_OUTPUT = INNER_ITER RMS_VELOCITY-X RMS_VELOCITY-Y RMS_PRESSURE RMS_ProgressVariable RMS_EnthalpyTot RMS_MixtureFraction RMS_CO2
HISTORY_OUTPUT = RMS_RES AERO_COEFF FLOW_COEFF FLOW_COEFF_SURF
VOLUME_OUTPUT = SOLUTION PRIMITIVE SOURCE RESIDUAL SENSITIVITY LOOKUP TIMESTEP
CONV_FIELD = RMS_PRESSURE
%
% ------------------------- INPUT/OUTPUT INFORMATION --------------------------%
%
OUTPUT_PRECISION= 16
MESH_FORMAT= SU2
MESH_FILENAME= mesh_unstructured.su2
MESH_OUT_FILENAME= mesh_out.su2
SOLUTION_FILENAME= solution
RESTART_FILENAME= restart
%OUTPUT_FILES = (RESTART,PARAVIEW,PARAVIEW_MULTIBLOCK) 
OUTPUT_FILES = (RESTART,PARAVIEW) 
TABULAR_FORMAT = CSV
CONV_FILENAME= history
VOLUME_FILENAME= ch4_flame_cfd
SURFACE_FILENAME= surface_flow
WRT_PERFORMANCE = NO 
SCREEN_WRT_FREQ_INNER = 1
SCREEN_WRT_FREQ_OUTER = 1


