%%%%%%%%%%%%%%%%%%%%%%%%%%%%%%%%%%%%%%%%%%%%%%%%%%%%%%%%%%%%%%%%%%%%%%%%%%%%%%%%
%                                                                              %
% SU2 configuration file                                                       %
% Case description: Transonic turbulent flow around a ONERA M6 wing (steady)   %
% Author: Francisco Palacios                                                   %
% Institution: Stanford University                                             %
% Date: 2011.11.02                                                             %
% File Version 8.0.0 "Harrier"                                                 %
%                                                                              %
%%%%%%%%%%%%%%%%%%%%%%%%%%%%%%%%%%%%%%%%%%%%%%%%%%%%%%%%%%%%%%%%%%%%%%%%%%%%%%%%

% ------------- DIRECT, ADJOINT, AND LINEARIZED PROBLEM DEFINITION ------------%
%
SOLVER= NAVIER_STOKES
KIND_TURB_MODEL= SA
MATH_PROBLEM= DIRECT
RESTART_SOL= YES

% -------------------- COMPRESSIBLE FREE-STREAM DEFINITION --------------------%
%
MACH_NUMBER= 0.8395
AOA= 3.06
SIDESLIP_ANGLE= 0.0
FREESTREAM_TEMPERATURE= 288.15
REYNOLDS_NUMBER= 11.72E6
REYNOLDS_LENGTH= 0.64607

% ---------------------- REFERENCE VALUE DEFINITION ---------------------------%
%
REF_ORIGIN_MOMENT_X = 0.25
REF_ORIGIN_MOMENT_Y = 0.00
REF_ORIGIN_MOMENT_Z = 0.00
REF_LENGTH= 0.64607
REF_AREA= 0

% -------------------- BOUNDARY CONDITION DEFINITION --------------------------%
%
MARKER_HEATFLUX= ( wing, 0.0 )
MARKER_FAR= ( farfield )
MARKER_SYM= ( symmetry )
MARKER_PLOTTING= ( wing )
MARKER_MONITORING= ( wing )

% ------------- COMMON PARAMETERS DEFINING THE NUMERICAL METHOD ---------------%
%
NUM_METHOD_GRAD= GREEN_GAUSS
CFL_NUMBER= 4.0
CFL_ADAPT= NO
CFL_ADAPT_PARAM= ( 1.5, 0.5, 1.0, 100.0 )
RK_ALPHA_COEFF= ( 0.66667, 0.66667, 1.000000 )
EXT_ITER= 10000

% ------------------------ LINEAR SOLVER DEFINITION ---------------------------%
%
LINEAR_SOLVER= FGMRES
LINEAR_SOLVER_PREC= LU_SGS
LINEAR_SOLVER_ERROR= 1E-5
LINEAR_SOLVER_ITER= 2

% -------------------------- MULTIGRID PARAMETERS -----------------------------%
%
MGLEVEL= 2
MGCYCLE= V_CYCLE
MG_PRE_SMOOTH= ( 1, 2, 3, 3 )
MG_POST_SMOOTH= ( 0, 0, 0, 0 )
MG_CORRECTION_SMOOTH= ( 0, 0, 0, 0 )
MG_DAMP_RESTRICTION= 0.7
MG_DAMP_PROLONGATION= 0.7

% -------------------- FLOW NUMERICAL METHOD DEFINITION -----------------------%
%
CONV_NUM_METHOD_FLOW= JST
VENKAT_LIMITER_COEFF= 0.03
JST_SENSOR_COEFF= ( 0.5, 0.02 )
TIME_DISCRE_FLOW= EULER_IMPLICIT

% -------------------- TURBULENT NUMERICAL METHOD DEFINITION ------------------%
%
CONV_NUM_METHOD_TURB= SCALAR_UPWIND
MUSCL_TURB= NO
SLOPE_LIMITER_TURB= VENKATAKRISHNAN
TIME_DISCRE_TURB= EULER_IMPLICIT

% ---------------- ADJOINT-FLOW NUMERICAL METHOD DEFINITION -------------------%
OBJECTIVE_FUNCTION= DRAG
CONV_NUM_METHOD_ADJFLOW= JST
SLOPE_LIMITER_ADJFLOW= VENKATAKRISHNAN
ADJ_SHARP_LIMITER_COEFF= 3.0
ADJ_JST_SENSOR_COEFF= ( 0.0, 0.02 )
TIME_DISCRE_ADJFLOW= EULER_IMPLICIT
CFL_REDUCTION_ADJFLOW= 0.8
SENS_REMOVE_SHARP= NO

% ----------------------- GEOMETRY EVALUATION PARAMETERS ----------------------%
%
GEO_MODE= FUNCTION
GEO_MARKER= ( wing )
GEO_AXIS_STATIONS= Y_AXIS
GEO_WING_BOUNDS= (0.0806, 1.1284)
GEO_PLOT_STATIONS= NO

% ------------------------ GRID DEFORMATION PARAMETERS ------------------------%
%
DV_KIND= FFD_CONTROL_POINT
DV_MARKER= ( wing )
DV_PARAM= ( WING_BOX, 2, 2, 1, 0.0, 0.0, 1.0 )
DV_VALUE= 0.1

% --------------------------- CONVERGENCE PARAMETERS --------------------------%
CONV_RESIDUAL_MINVAL= -8
CONV_STARTITER= 1
CONV_CAUCHY_ELEMS= 100
CONV_CAUCHY_EPS= 1E-5

% ------------------------- INPUT/OUTPUT INFORMATION --------------------------%
%
MESH_FILENAME= mesh_ONERAM6_turb.su2
MESH_FORMAT= SU2
MESH_OUT_FILENAME= mesh_out.su2
SOLUTION_FILENAME= solution_flow.dat
SOLUTION_ADJ_FILENAME= solution_adj.dat
TABULAR_FORMAT= CSV
CONV_FILENAME= history
RESTART_FILENAME= restart_flow.dat
RESTART_ADJ_FILENAME= restart_adj.dat
VOLUME_FILENAME= flow
VOLUME_ADJ_FILENAME= adjoint
GRAD_OBJFUNC_FILENAME= of_grad.dat
SURFACE_FILENAME= surface_flow
SURFACE_ADJ_FILENAME= surface_adjoint
OUTPUT_WRT_FREQ= 1000

% --------------------- OPTIMAL SHAPE DESIGN DEFINITION -----------------------%
%
OPT_OBJECTIVE= DRAG * 0.001
OPT_CONSTRAINT= (LIFT > 0.268) * 0.001
DEFINITION_DV= ( 11, 1.0 | wing | WING_BOX, 0, 0, 1, 0.0, 0.0, 1.0 ); ( 11, 1.0 | wing | WING_BOX, 1, 0, 1, 0.0, 0.0, 1.0 ); ( 11, 1.0 | wing | WING_BOX, 2, 0, 1, 0.0, 0.0, 1.0 ); ( 11, 1.0 | wing | WING_BOX, 3, 0, 1, 0.0, 0.0, 1.0 ); ( 11, 1.0 | wing | WING_BOX, 4, 0, 1, 0.0, 0.0, 1.0 ); ( 11, 1.0 | wing | WING_BOX, 0, 1, 1, 0.0, 0.0, 1.0 ); ( 11, 1.0 | wing | WING_BOX, 1, 1, 1, 0.0, 0.0, 1.0 ); ( 11, 1.0 | wing | WING_BOX, 2, 1, 1, 0.0, 0.0, 1.0 ); ( 11, 1.0 | wing | WING_BOX, 3, 1, 1, 0.0, 0.0, 1.0 ); ( 11, 1.0 | wing | WING_BOX, 4, 1, 1, 0.0, 0.0, 1.0 ); ( 11, 1.0 | wing | WING_BOX, 0, 2, 1, 0.0, 0.0, 1.0 ); ( 11, 1.0 | wing | WING_BOX, 1, 2, 1, 0.0, 0.0, 1.0 ); ( 11, 1.0 | wing | WING_BOX, 2, 2, 1, 0.0, 0.0, 1.0 ); ( 11, 1.0 | wing | WING_BOX, 3, 2, 1, 0.0, 0.0, 1.0 ); ( 11, 1.0 | wing | WING_BOX, 4, 2, 1, 0.0, 0.0, 1.0 ); ( 11, 1.0 | wing | WING_BOX, 0, 3, 1, 0.0, 0.0, 1.0 ); ( 11, 1.0 | wing | WING_BOX, 1, 3, 1, 0.0, 0.0, 1.0 ); ( 11, 1.0 | wing | WING_BOX, 2, 3, 1, 0.0, 0.0, 1.0 ); ( 11, 1.0 | wing | WING_BOX, 3, 3, 1, 0.0, 0.0, 1.0 ); ( 11, 1.0 | wing | WING_BOX, 4, 3, 1, 0.0, 0.0, 1.0 ); ( 11, 1.0 | wing | WING_BOX, 0, 4, 1, 0.0, 0.0, 1.0 ); ( 11, 1.0 | wing | WING_BOX, 1, 4, 1, 0.0, 0.0, 1.0 ); ( 11, 1.0 | wing | WING_BOX, 2, 4, 1, 0.0, 0.0, 1.0 ); ( 11, 1.0 | wing | WING_BOX, 3, 4, 1, 0.0, 0.0, 1.0 ); ( 11, 1.0 | wing | WING_BOX, 4, 4, 1, 0.0, 0.0, 1.0 ); ( 11, 1.0 | wing | WING_BOX, 0, 0, 0, 0.0, 0.0, 1.0 ); ( 11, 1.0 | wing | WING_BOX, 1, 0, 0, 0.0, 0.0, 1.0 ); ( 11, 1.0 | wing | WING_BOX, 2, 0, 0, 0.0, 0.0, 1.0 ); ( 11, 1.0 | wing | WING_BOX, 3, 0, 0, 0.0, 0.0, 1.0 ); ( 11, 1.0 | wing | WING_BOX, 4, 0, 0, 0.0, 0.0, 1.0 ); ( 11, 1.0 | wing | WING_BOX, 0, 1, 0, 0.0, 0.0, 1.0 ); ( 11, 1.0 | wing | WING_BOX, 1, 1, 0, 0.0, 0.0, 1.0 ); ( 11, 1.0 | wing | WING_BOX, 2, 1, 0, 0.0, 0.0, 1.0 ); ( 11, 1.0 | wing | WING_BOX, 3, 1, 0, 0.0, 0.0, 1.0 ); ( 11, 1.0 | wing | WING_BOX, 4, 1, 0, 0.0, 0.0, 1.0 ); ( 11, 1.0 | wing | WING_BOX, 0, 2, 0, 0.0, 0.0, 1.0 ); ( 11, 1.0 | wing | WING_BOX, 1, 2, 0, 0.0, 0.0, 1.0 ); ( 11, 1.0 | wing | WING_BOX, 2, 2, 0, 0.0, 0.0, 1.0 ); ( 11, 1.0 | wing | WING_BOX, 3, 2, 0, 0.0, 0.0, 1.0 ); ( 11, 1.0 | wing | WING_BOX, 4, 2, 0, 0.0, 0.0, 1.0 ); ( 11, 1.0 | wing | WING_BOX, 0, 3, 0, 0.0, 0.0, 1.0 ); ( 11, 1.0 | wing | WING_BOX, 1, 3, 0, 0.0, 0.0, 1.0 ); ( 11, 1.0 | wing | WING_BOX, 2, 3, 0, 0.0, 0.0, 1.0 ); ( 11, 1.0 | wing | WING_BOX, 3, 3, 0, 0.0, 0.0, 1.0 ); ( 11, 1.0 | wing | WING_BOX, 4, 3, 0, 0.0, 0.0, 1.0 ); ( 11, 1.0 | wing | WING_BOX, 0, 4, 0, 0.0, 0.0, 1.0 ); ( 11, 1.0 | wing | WING_BOX, 1, 4, 0, 0.0, 0.0, 1.0 ); ( 11, 1.0 | wing | WING_BOX, 2, 4, 0, 0.0, 0.0, 1.0 ); ( 11, 1.0 | wing | WING_BOX, 3, 4, 0, 0.0, 0.0, 1.0 ); ( 11, 1.0 | wing | WING_BOX, 4, 4, 0, 0.0, 0.0, 1.0 )
