%%%%%%%%%%%%%%%%%%%%%%%%%%%%%%%%%%%%%%%%%%%%%%%%%%%%%%%%%%%%%%%%%%%%%%%%%%%%%%%%
%                                                                              %
% SU2 configuration file                                                       %
% Case description: Fluid structure interaction - Beam in channel - 2D - FEM   %
% Author: R.Sanchez                                                            %
% Institution: TU Kaiserslautern                                               %
%                                                                              %
%%%%%%%%%%%%%%%%%%%%%%%%%%%%%%%%%%%%%%%%%%%%%%%%%%%%%%%%%%%%%%%%%%%%%%%%%%%%%%%%

% ------------- DIRECT, ADJOINT, AND LINEARIZED PROBLEM DEFINITION ------------%
%
% Physical governing equations (EULER, NAVIER_STOKES,
%                               TNE2_EULER, TNE2_NAVIER_STOKES,
%                               WAVE_EQUATION, HEAT_EQUATION, LINEAR_ELASTICITY,
%                               POISSON_EQUATION)
SOLVER= NAVIER_STOKES

KIND_TURB_MODEL= NONE
MATH_PROBLEM= DIRECT

% --------------------------- MESH DEFORMATION ---------------------------------%

MESH_FILENAME= meshFlow.su2

DEFORM_MESH = YES
MARKER_DEFORM_MESH = (wallF)

DEFORM_STIFFNESS_TYPE = INVERSE_VOLUME

DEFORM_LINEAR_SOLVER = CONJUGATE_GRADIENT
DEFORM_LINEAR_SOLVER_PREC = LU_SGS
DEFORM_LINEAR_SOLVER_ERROR = 1E-5
DEFORM_LINEAR_SOLVER_ITER = 5000
DEFORM_CONSOLE_OUTPUT = NO

% -----------------------------------------------------------------------------%

EXT_ITER= 1
WRT_SOL_FREQ= 1
WRT_SOL_FREQ_DUALTIME= 1

INNER_ITER= 200

% ----------------------------- INPUT/OUTPUT ----------------------------------%

VOLUME_FLOW_FILENAME= result_flow
CONV_FILENAME= history

WRITE_CONV_FILENAME_FSI = YES

CONV_FILENAME_FSI= historyFSI.csv
BREAKDOWN_FILENAME= forces_breakdown.dat

SOLUTION_FLOW_FILENAME= solution_flow.dat
RESTART_FLOW_FILENAME= restart_flow.dat

WRT_SRF_SOL = NO
WRT_CSV_SOL = NO

% -------------------- BOUNDARY CONDITION DEFINITION --------------------------%

MARKER_HEATFLUX= ( wallF, 0.0)
MARKER_INLET= ( inlet, 0.0578070909, 20.1346756866, 1.0, 0.0, 0.0 )
MARKER_OUTLET= ( outlet, 19.5809057203)
MARKER_EULER= ( upper, lower )

MARKER_PLOTTING= ( wallF )
MARKER_MONITORING= ( wallF )

% -------------------------- FLUID SIMULATION ---------------------------------%

UNSTEADY_SIMULATION= NO
%
% Total Physical Time for dual time stepping simulations (s)
UNST_TIME= 4.01
%
% Dynamic analysis total time
DYN_TIME= 4.01

% ----------- COMPRESSIBLE AND INCOMPRESSIBLE FREE-STREAM DEFINITION ----------%

MACH_NUMBER= 0.2
MACH_MOTION= 0.2
AoA= 0.0
SIDESLIP_ANGLE= 0.0

INIT_OPTION = TD_CONDITIONS
FREESTREAM_OPTION = DENSITY_FS
FREESTREAM_DENSITY = 1.18
FREESTREAM_PRESSURE = 19.5809057203
FREESTREAM_TEMPERATURE = 0.0578070909
VISCOSITY_MODEL = CONSTANT_VISCOSITY
MU_CONSTANT = 1.82E-3
REYNOLDS_NUMBER= 10
CFL_NUMBER = 100

% ---------------------- REFERENCE VALUE DEFINITION ---------------------------%

REF_ORIGIN_MOMENT_X = 0.00
REF_ORIGIN_MOMENT_Y = 0.00
REF_ORIGIN_MOMENT_Z = 0.00

REF_AREA = 0.016
REYNOLDS_LENGTH = 0.016

% --------------------------- MESH PARAMETERS ---------------------------------%

DEFORM_LINEAR_ITER= 500
DEFORM_NONLINEAR_ITER= 1

% ------------- COMMON PARAMETERS DEFINING THE NUMERICAL METHOD ---------------%

NUM_METHOD_GRAD= WEIGHTED_LEAST_SQUARES
RK_ALPHA_COEFF= ( 0.66667, 0.66667, 1.000000 )

% ------------------------ LINEAR SOLVER DEFINITION ---------------------------%

LINEAR_SOLVER= FGMRES
LINEAR_SOLVER_PREC= LU_SGS
LINEAR_SOLVER_ERROR= 1E-6
LINEAR_SOLVER_ITER= 2

% -------------------------- MULTIGRID PARAMETERS -----------------------------%

MGLEVEL= 0

% -------------------- FLOW NUMERICAL METHOD DEFINITION -----------------------%

CONV_NUM_METHOD_FLOW= ROE
MUSCL_FLOW= YES
SLOPE_LIMITER_FLOW= VENKATAKRISHNAN
VENKAT_LIMITER_COEFF= 1.0
JST_SENSOR_COEFF=( 0.5, 0.02 )
TIME_DISCRE_FLOW= EULER_IMPLICIT

% --------------------------- CONVERGENCE PARAMETERS --------------------------%

CONV_CRITERIA= RESIDUAL
RESIDUAL_REDUCTION= 4
RESIDUAL_MINVAL= -10
STARTCONV_ITER= 10
CAUCHY_ELEMS= 100
CAUCHY_EPS= 1E-5
CAUCHY_FUNC_FLOW= DRAG

% ------------------------- INPUT/OUTPUT INFORMATION --------------------------%

MESH_FORMAT= SU2
OUTPUT_FORMAT= PARAVIEW_BINARY
WRT_CON_FREQ= 1
WRT_CON_FREQ_DUALTIME= 1
