%%%%%%%%%%%%%%%%%%%%%%%%%%%%%%%%%%%%%%%%%%%%%%%%%%%%%%%%%%%%%%%%%%%%%%%%%%%%%%%%
%                                                                              %
% SU2 configuration file                                                       %
% Case description: Fluid structure interaction - Beam in channel - 2D - FEM   %
% Author: R.Sanchez                                                            %
% Institution: TU Kaiserslautern                                               %
%                                                                              %
%%%%%%%%%%%%%%%%%%%%%%%%%%%%%%%%%%%%%%%%%%%%%%%%%%%%%%%%%%%%%%%%%%%%%%%%%%%%%%%%

% ------------- DIRECT, ADJOINT, AND LINEARIZED PROBLEM DEFINITION ------------%
%
SOLVER= ELASTICITY
MATH_PROBLEM= DIRECT

% ------------------------ PARAMETERS FEM SOLVER ------------------------------%

GEOMETRIC_CONDITIONS= LARGE_DEFORMATIONS
MATERIAL_MODEL= NEO_HOOKEAN
MATERIAL_COMPRESSIBILITY= COMPRESSIBLE
NONLINEAR_FEM_SOLUTION_METHOD = NEWTON_RAPHSON
INNER_ITER = 10

INCREMENTAL_LOAD = NO

% --------------------------- TIME STEP ISSUES --------------------------------%

TIME_ITER= 1
OUTPUT_WRT_FREQ= 1

% --------------------------- MESH REFINEMENT ---------------------------------%

MESH_FILENAME= meshFEA.su2

% --------------------------- FSI CONDITIONS ----------------------------------%

RAMP_LOADING=NO

STAT_RELAX_PARAMETER= 1.0
BGS_RELAXATION = FIXED_PARAMETER
PREDICTOR_ORDER = 0

CONV_FIELD=RMS_UTOL
CONV_RESIDUAL_MINVAL=-10

% ----------------------------- INPUT/OUTPUT ----------------------------------%

VOLUME_FILENAME= result_beam

BREAKDOWN_FILENAME= forces_breakdown.dat

SOLUTION_FILENAME= solution_beam.dat
RESTART_FILENAME= restart_beam.dat

% ------------------------ STRUCTURAL PARAMETERS ------------------------------%

ELASTICITY_MODULUS=21000
MATERIAL_DENSITY=0.8
FORMULATION_ELASTICITY_2D = PLANE_STRAIN
POISSON_RATIO=0.4

% -------------------------- DYNAMIC SIMULATION -------------------------------%
TIME_DOMAIN= NO
TIME_DISCRE_FEA= NEWMARK_IMPLICIT

% -------------------------- STRUCTURAL SOLVER --------------------------------%

LINEAR_SOLVER = CONJUGATE_GRADIENT
LINEAR_SOLVER_PREC = JACOBI
LINEAR_SOLVER_ERROR = 1E-3
LINEAR_SOLVER_ITER = 2000

% -------------------- BOUNDARY CONDITION DEFINITION --------------------------%

MARKER_CLAMPED = ( clamped )
MARKER_PRESSURE= ( wallS, 0.0)

MARKER_FLUID_LOAD = (wallS)

% ------------------------- INPUT/OUTPUT INFORMATION --------------------------%

MESH_FORMAT= SU2
TABULAR_FORMAT= CSV
