%%%%%%%%%%%%%%%%%%%%%%%%%%%%%%%%%%%%%%%%%%%%%%%%%%%%%%%%%%%%%%%%%%%%%%%%%%%%%%%%
%                                                                              %
% SU2 configuration file                                                       %
% Case description: Fluid structure interaction - Beam in channel - 2D - FEM   %
% Author: R.Sanchez                                                            %
% Institution: TU Kaiserslautern                                               %
%                                                                              %
%%%%%%%%%%%%%%%%%%%%%%%%%%%%%%%%%%%%%%%%%%%%%%%%%%%%%%%%%%%%%%%%%%%%%%%%%%%%%%%%

% ------------- DIRECT, ADJOINT, AND LINEARIZED PROBLEM DEFINITION ------------%
%
SOLVER= NAVIER_STOKES

KIND_TURB_MODEL= NONE
MATH_PROBLEM= DIRECT

% --------------------------- MESH DEFORMATION ---------------------------------%

MESH_FILENAME= meshFlow.su2

DEFORM_MESH = YES
MARKER_DEFORM_MESH = (wallF)

DEFORM_STIFFNESS_TYPE = INVERSE_VOLUME

DEFORM_LINEAR_SOLVER = CONJUGATE_GRADIENT
DEFORM_LINEAR_SOLVER_PREC = LU_SGS
DEFORM_LINEAR_SOLVER_ERROR = 1E-5
DEFORM_NONLINEAR_ITER= 1
DEFORM_LINEAR_SOLVER_ITER = 5000
DEFORM_CONSOLE_OUTPUT = NO

% -----------------------------------------------------------------------------%

OUTPUT_WRT_FREQ= 10

INNER_ITER= 200

% ----------------------------- INPUT/OUTPUT ----------------------------------%

VOLUME_FILENAME= result_flow
CONV_FILENAME= history

BREAKDOWN_FILENAME= forces_breakdown.dat

SOLUTION_FILENAME= solution_flow.dat
RESTART_FILENAME= restart_flow.dat

% -------------------- BOUNDARY CONDITION DEFINITION --------------------------%

MARKER_HEATFLUX= ( wallF, 0.0)
MARKER_INLET= ( inlet, 0.0578070909, 20.1346756866, 1.0, 0.0, 0.0 )
MARKER_OUTLET= ( outlet, 19.5809057203)
MARKER_EULER= ( upper, lower )

MARKER_PLOTTING= ( wallF )
MARKER_MONITORING= ( wallF )

% -------------------------- FLUID SIMULATION ---------------------------------%

TIME_DOMAIN=NO
MAX_TIME= 4.01

% ----------- COMPRESSIBLE AND INCOMPRESSIBLE FREE-STREAM DEFINITION ----------%

MACH_NUMBER= 0.2
MACH_MOTION= 0.2
AoA= 0.0
SIDESLIP_ANGLE= 0.0

INIT_OPTION = TD_CONDITIONS
FREESTREAM_OPTION = DENSITY_FS
FREESTREAM_DENSITY = 1.18
FREESTREAM_PRESSURE = 19.5809057203
FREESTREAM_TEMPERATURE = 0.0578070909
VISCOSITY_MODEL = CONSTANT_VISCOSITY
MU_CONSTANT = 1.82E-3
REYNOLDS_NUMBER= 10
CFL_NUMBER = 100

% ---------------------- REFERENCE VALUE DEFINITION ---------------------------%

REF_ORIGIN_MOMENT_X = 0.00
REF_ORIGIN_MOMENT_Y = 0.00
REF_ORIGIN_MOMENT_Z = 0.00

REF_AREA = 0.016
REYNOLDS_LENGTH = 0.016

% ------------- COMMON PARAMETERS DEFINING THE NUMERICAL METHOD ---------------%

NUM_METHOD_GRAD= WEIGHTED_LEAST_SQUARES
RK_ALPHA_COEFF= ( 0.66667, 0.66667, 1.000000 )

% ------------------------ LINEAR SOLVER DEFINITION ---------------------------%

LINEAR_SOLVER= FGMRES
LINEAR_SOLVER_PREC= ILU
LINEAR_SOLVER_ERROR= 1E-6
LINEAR_SOLVER_ITER= 2

% -------------------- FLOW NUMERICAL METHOD DEFINITION -----------------------%

CONV_NUM_METHOD_FLOW= ROE
MUSCL_FLOW= YES
SLOPE_LIMITER_FLOW= VENKATAKRISHNAN
VENKAT_LIMITER_COEFF= 1.0
JST_SENSOR_COEFF=( 0.5, 0.02 )
TIME_DISCRE_FLOW= EULER_IMPLICIT

% --------------------------- CONVERGENCE PARAMETERS --------------------------%

CONV_RESIDUAL_MINVAL= -10
CONV_STARTITER= 10
CONV_CAUCHY_ELEMS= 100
CONV_CAUCHY_EPS= 1E-5

% ------------------------- INPUT/OUTPUT INFORMATION --------------------------%

MESH_FORMAT= SU2
TABULAR_FORMAT= CSV
