%%%%%%%%%%%%%%%%%%%%%%%%%%%%%%%%%%%%%%%%%%%%%%%%%%%%%%%%%%%%%%%%%%%%%%%%%%%%%%%%
%                                                                              %
% SU2 configuration file                                                       %
% Case description: Actuator Disk with a semi-infinite spinner                 %
% Author: E. Saetta, L. Russo, R. Tognaccini                                   %
% Institution: Theoretical and Applied Aerodynamic Research Group (TAARG)      %
%              University of Naples Federico II                                %
% Comments: Grid file and propeller data courtesy of Mauro Minervino,          %
%           Centro Italiano Ricerche Aerospaziali (CIRA)                       %
% Date: 07/08/2020                                                             %
% File Version 8.0.0 "Harrier"                                                 %
%                                                                              %
%%%%%%%%%%%%%%%%%%%%%%%%%%%%%%%%%%%%%%%%%%%%%%%%%%%%%%%%%%%%%%%%%%%%%%%%%%%%%%%%

%----------- DIRECT, ADJOINT, AND LINEARIZED PROBLEM DEFINITION -------------------------%
%
SOLVER= RANS
KIND_TURB_MODEL= SA
FREESTREAM_TURBULENCEINTENSITY=0.01
MATH_PROBLEM= DIRECT
RESTART_SOL= NO
SYSTEM_MEASUREMENTS= SI

% -------------------- COMPRESSIBLE FREE-STREAM DEFINITION --------------------%
MACH_NUMBER= 0.55996
AOA= 0.0
SIDESLIP_ANGLE= 0.0
REYNOLDS_NUMBER= 3.65E7
REYNOLDS_LENGTH= 5.0292

% ---------------------- REFERENCE VALUE DEFINITION ---------------------------%
%
REF_ORIGIN_MOMENT_X = 0.0
REF_ORIGIN_MOMENT_Y = 0.0
REF_ORIGIN_MOMENT_Z = 0.0
REF_LENGTH= 1.0
REF_AREA= 19.8649
REF_DIMENSIONALIZATION= DIMENSIONAL

% --------------- ENGINE AND ACTUATOR DISK SIMULATION -------------------------%
%
HIGHLITE_AREA= 19.8649
ENGINE_NU_FACTOR= 0.0

% -------------------- BOUNDARY CONDITION DEFINITION --------------------------%
%
ACTDISK_DOUBLE_SURFACE = YES
ACTDISK_TYPE= VARIABLE_LOAD
ACTDISK_FILENAME= ActuatorDisk.dat
MARKER_ACTDISK = ( DISK, DISK_BACK, 0.0, 0.0, 0.0, 0.0, 0.0, 0.0 )
MARKER_FAR= ( FF )
MARKER_OUTLET = ( OUT , 56370.2)
MARKER_HEATFLUX = (SPINNER, 0.0)

% ------------------------ SURFACES IDENTIFICATION ----------------------------%
%
MARKER_PLOTTING = ( DISK, DISK_BACK, SPINNER )
MARKER_MONITORING = ( DISK, DISK_BACK, SPINNER )
MARKER_ANALYZE = ( DISK, DISK_BACK )
MARKER_ANALYZE_AVERAGE = MASSFLUX

% ------------- COMMON PARAMETERS DEFINING THE NUMERICAL METHOD ---------------%
%
NUM_METHOD_GRAD= GREEN_GAUSS
CFL_NUMBER= 20.0
CFL_ADAPT= NO
OBJECTIVE_FUNCTION= DRAG

% ------------------------ LINEAR SOLVER DEFINITION ---------------------------%
%
LINEAR_SOLVER= FGMRES
LINEAR_SOLVER_PREC= ILU
LINEAR_SOLVER_ERROR= 1E-12
LINEAR_SOLVER_ITER= 3
CONV_CAUCHY_ELEMS= 1000
CONV_CAUCHY_EPS= 1E-10

% -------------------- FLOW NUMERICAL METHOD DEFINITION -----------------------%
%
CONV_NUM_METHOD_FLOW= JST
TIME_DISCRE_FLOW= EULER_IMPLICIT

% -------------------- TURBULENT NUMERICAL METHOD DEFINITION ------------------%
%
CONV_NUM_METHOD_TURB= SCALAR_UPWIND
MUSCL_TURB= NO
SLOPE_LIMITER_TURB= VENKATAKRISHNAN
TIME_DISCRE_TURB= EULER_IMPLICIT

% --------------------------- CONVERGENCE PARAMETERS --------------------------%
%
ITER= 1500
CONV_RESIDUAL_MINVAL= -8
CONV_STARTITER= 10

% ------------------------- INPUT/OUTPUT INFORMATION --------------------------%
%
MESH_FILENAME= propeller_variable_load.su2
MESH_FORMAT= SU2
MESH_OUT_FILENAME= mesh_out.su2
SOLUTION_FILENAME= restart_flow.dat
TABULAR_FORMAT= TECPLOT
CONV_FILENAME= history
WRT_FORCES_BREAKDOWN= YES
BREAKDOWN_FILENAME= forces_breakdown.dat
RESTART_FILENAME= restart_flow.dat
VOLUME_FILENAME= flow
SURFACE_FILENAME= surface_flow
OUTPUT_WRT_FREQ= 250
SCREEN_OUTPUT= (INNER_ITER, RMS_DENSITY, RMS_NU_TILDE, LIFT, DRAG)
