%%%%%%%%%%%%%%%%%%%%%%%%%%%%%%%%%%%%%%%%%%%%%%%%%%%%%%%%%%%%%%%%%%%%%%%%%%%%%%%%
%                                                                              %
% SU2 configuration file                                                       %
% Case description: Adjoint laminar flow around a cylinder (Re 40)             %
% Author: Thomas D. Economon                                                   %
% Institution: Stanford University                                             %
% Date: 2013.03.01                                                             %
% File Version 8.0.0 "Harrier"                                                 %
%                                                                              %
%%%%%%%%%%%%%%%%%%%%%%%%%%%%%%%%%%%%%%%%%%%%%%%%%%%%%%%%%%%%%%%%%%%%%%%%%%%%%%%%

% ------------- DIRECT, ADJOINT, AND LINEARIZED PROBLEM DEFINITION ------------%
%
SOLVER= NAVIER_STOKES
KIND_TURB_MODEL= NONE
MATH_PROBLEM= CONTINUOUS_ADJOINT
RESTART_SOL= YES
READ_BINARY_RESTART= NO

% -------------------- COMPRESSIBLE FREE-STREAM DEFINITION --------------------%
%
MACH_NUMBER= 0.1
AOA= 0.0
FREESTREAM_TEMPERATURE= 288.15
REYNOLDS_NUMBER= 40.0
REYNOLDS_LENGTH= 1.0

% ---------------------- REFERENCE VALUE DEFINITION ---------------------------%
%
REF_ORIGIN_MOMENT_X = 0.25
REF_ORIGIN_MOMENT_Y = 0.00
REF_ORIGIN_MOMENT_Z = 0.00
REF_LENGTH= 1.0
REF_AREA= 1.0

% -------------------- BOUNDARY CONDITION DEFINITION --------------------------%
%
MARKER_HEATFLUX= ( cylinder, 0.0 )
MARKER_FAR= ( farfield )
MARKER_PLOTTING= ( cylinder )
MARKER_MONITORING= ( cylinder )

% ------------- COMMON PARAMETERS DEFINING THE NUMERICAL METHOD ---------------%
%
NUM_METHOD_GRAD= WEIGHTED_LEAST_SQUARES
OBJECTIVE_FUNCTION= DRAG
CFL_NUMBER= 5.0
CFL_ADAPT= NO
CFL_ADAPT_PARAM= ( 1.5, 0.5, 1.0, 100.0 )
RK_ALPHA_COEFF= ( 0.66667, 0.66667, 1.000000 )
ITER= 150

% ------------------------ LINEAR SOLVER DEFINITION ---------------------------%
%
LINEAR_SOLVER= BCGSTAB
LINEAR_SOLVER_ERROR= 1E-8
LINEAR_SOLVER_ITER= 2

% -------------------------- MULTIGRID PARAMETERS -----------------------------%
%
MGLEVEL= 1
MGCYCLE= V_CYCLE
MG_PRE_SMOOTH= ( 1, 2, 3, 3 )
MG_POST_SMOOTH= ( 0, 0, 0, 0 )
MG_CORRECTION_SMOOTH= ( 0, 0, 0, 0 )
MG_DAMP_RESTRICTION= 0.8
MG_DAMP_PROLONGATION= 0.8

% -------------------- FLOW NUMERICAL METHOD DEFINITION -----------------------%
%
CONV_NUM_METHOD_FLOW= JST
JST_SENSOR_COEFF= ( 0.0, 0.001 )
TIME_DISCRE_FLOW= EULER_IMPLICIT

% ---------------- ADJOINT-FLOW NUMERICAL METHOD DEFINITION -------------------%
%
CONV_NUM_METHOD_ADJFLOW= JST
ADJ_JST_SENSOR_COEFF= ( 0.0, 0.001 )
CFL_REDUCTION_ADJFLOW= 0.75
TIME_DISCRE_ADJFLOW= EULER_IMPLICIT

% ------------------------ GRID DEFORMATION PARAMETERS ------------------------%
%
DV_KIND= HICKS_HENNE
DV_MARKER= ( cylinder )
DV_PARAM= ( 1, 0.5 )
DV_VALUE= 0.05
HOLD_GRID_FIXED= NO
HOLD_GRID_FIXED_COORD= ( -0.5, -0.49, 0.0, 2.5, 0.49, 0.0 )

% --------------------------- CONVERGENCE PARAMETERS --------------------------%
%
CONV_RESIDUAL_MINVAL= -14
CONV_STARTITER= 10
CONV_CAUCHY_ELEMS= 100
CONV_CAUCHY_EPS= 1E-6

% ------------------------- INPUT/OUTPUT INFORMATION --------------------------%
%
MESH_FILENAME= mesh_cylinder_lam.su2
MESH_FORMAT= SU2
MESH_OUT_FILENAME= mesh_out.su2
SOLUTION_FILENAME= solution_flow.dat
SOLUTION_ADJ_FILENAME= solution_adj.dat
TABULAR_FORMAT= CSV
CONV_FILENAME= history
RESTART_FILENAME= restart_flow.dat
RESTART_ADJ_FILENAME= restart_adj.dat
VOLUME_FILENAME= flow
VOLUME_ADJ_FILENAME= adjoint
GRAD_OBJFUNC_FILENAME= of_grad.dat
SURFACE_FILENAME= surface_flow
SURFACE_ADJ_FILENAME= surface_adjoint
OUTPUT_WRT_FREQ= 1000
SCREEN_OUTPUT= (INNER_ITER, RMS_ADJ_DENSITY, RMS_ADJ_ENERGY, SENS_GEO, SENS_AOA)
OUTPUT_FILES=(RESTART_ASCII)

% --------------------- OPTIMAL SHAPE DESIGN DEFINITION -----------------------%
%
DEFINITION_DV= ( 30, 1.0 | cylinder | 0, 0.961538461538 ); ( 30, 1.0 | cylinder | 0, 0.923076923077 ); ( 30, 1.0 | cylinder | 0, 0.884615384615 ); ( 30, 1.0 | cylinder | 0, 0.846153846154 ); ( 30, 1.0 | cylinder | 0, 0.807692307692 ); ( 30, 1.0 | cylinder | 0, 0.769230769231 ); ( 30, 1.0 | cylinder | 0, 0.730769230769 ); ( 30, 1.0 | cylinder | 0, 0.692307692308 ); ( 30, 1.0 | cylinder | 0, 0.653846153846 ); ( 30, 1.0 | cylinder | 0, 0.615384615385 ); ( 30, 1.0 | cylinder | 0, 0.576923076923 ); ( 30, 1.0 | cylinder | 0, 0.538461538462 ); ( 30, 1.0 | cylinder | 0, 0.5 ); ( 30, 1.0 | cylinder | 0, 0.461538461538 ); ( 30, 1.0 | cylinder | 0, 0.423076923077 ); ( 30, 1.0 | cylinder | 0, 0.384615384615 ); ( 30, 1.0 | cylinder | 0, 0.346153846154 ); ( 30, 1.0 | cylinder | 0, 0.307692307692 ); ( 30, 1.0 | cylinder | 0, 0.269230769231 ); ( 30, 1.0 | cylinder | 0, 0.230769230769 ); ( 30, 1.0 | cylinder | 0, 0.192307692308 ); ( 30, 1.0 | cylinder | 0, 0.153846153846 ); ( 30, 1.0 | cylinder | 0, 0.115384615385 ); ( 30, 1.0 | cylinder | 0, 0.0769230769231 ); ( 30, 1.0 | cylinder | 0, 0.0384615384615 ); ( 30, 1.0 | cylinder | 1, 0.0384615384615 ); ( 30, 1.0 | cylinder | 1, 0.0769230769231 ); ( 30, 1.0 | cylinder | 1, 0.115384615385 ); ( 30, 1.0 | cylinder | 1, 0.153846153846 ); ( 30, 1.0 | cylinder | 1, 0.192307692308 ); ( 30, 1.0 | cylinder | 1, 0.230769230769 ); ( 30, 1.0 | cylinder | 1, 0.269230769231 ); ( 30, 1.0 | cylinder | 1, 0.307692307692 ); ( 30, 1.0 | cylinder | 1, 0.346153846154 ); ( 30, 1.0 | cylinder | 1, 0.384615384615 ); ( 30, 1.0 | cylinder | 1, 0.423076923077 ); ( 30, 1.0 | cylinder | 1, 0.461538461538 ); ( 30, 1.0 | cylinder | 1, 0.5 ); ( 30, 1.0 | cylinder | 1, 0.538461538462 ); ( 30, 1.0 | cylinder | 1, 0.576923076923 ); ( 30, 1.0 | cylinder | 1, 0.615384615385 ); ( 30, 1.0 | cylinder | 1, 0.653846153846 ); ( 30, 1.0 | cylinder | 1, 0.692307692308 ); ( 30, 1.0 | cylinder | 1, 0.730769230769 ); ( 30, 1.0 | cylinder | 1, 0.769230769231 ); ( 30, 1.0 | cylinder | 1, 0.807692307692 ); ( 30, 1.0 | cylinder | 1, 0.846153846154 ); ( 30, 1.0 | cylinder | 1, 0.884615384615 ); ( 30, 1.0 | cylinder | 1, 0.923076923077 ); ( 30, 1.0 | cylinder | 1, 0.961538461538 )
