%%%%%%%%%%%%%%%%%%%%%%%%%%%%%%%%%%%%%%%%%%%%%%%%%%%%%%%%%%%%%%%%%%%%%%%%%%%%%%%%
%                                                                              %
% SU2 configuration file                                                       %
% Case description: Adjoint laminar flow around a cylinder (Re 40)             %
% Author: Thomas D. Economon                                                   %
% Institution: Stanford University                                             %
% Date: 2013.03.01                                                             %
% File Version 7.3.1 "Blackbird"                                                %
%                                                                              %
%%%%%%%%%%%%%%%%%%%%%%%%%%%%%%%%%%%%%%%%%%%%%%%%%%%%%%%%%%%%%%%%%%%%%%%%%%%%%%%%

% ------------- DIRECT, ADJOINT, AND LINEARIZED PROBLEM DEFINITION ------------%
%
% Physical governing equations (EULER, NAVIER_STOKES,
%                               WAVE_EQUATION, HEAT_EQUATION, FEM_ELASTICITY,
%                               POISSON_EQUATION)                        
SOLVER= NAVIER_STOKES
%
% Specify turbulent model (NONE, SA, SA_NEG, SST)
KIND_TURB_MODEL= NONE
%
% Mathematical problem (DIRECT, CONTINUOUS_ADJOINT)
MATH_PROBLEM= CONTINUOUS_ADJOINT
%
% Restart solution (NO, YES)
RESTART_SOL= YES
%
% Read binary restart files (YES, NO)
READ_BINARY_RESTART= NO
% -------------------- COMPRESSIBLE FREE-STREAM DEFINITION --------------------%
%
% Mach number (non-dimensional, based on the free-stream values)
MACH_NUMBER= 0.1
%
% Angle of attack (degrees, only for compressible flows)
AOA= 0.0
%
% Free-stream temperature (288.15 K by default)
FREESTREAM_TEMPERATURE= 288.15
%
% Reynolds number (non-dimensional, based on the free-stream values)
REYNOLDS_NUMBER= 40.0
%
% Reynolds length (1 m by default)
REYNOLDS_LENGTH= 1.0

% ---------------------- REFERENCE VALUE DEFINITION ---------------------------%
%
% Reference origin for moment computation
REF_ORIGIN_MOMENT_X = 0.25
REF_ORIGIN_MOMENT_Y = 0.00
REF_ORIGIN_MOMENT_Z = 0.00
%
% Reference length for pitching, rolling, and yawing non-dimensional moment
REF_LENGTH= 1.0
%
% Reference area for force coefficients (0 implies automatic calculation)
REF_AREA= 1.0

% -------------------- BOUNDARY CONDITION DEFINITION --------------------------%
%
% Navier-Stokes wall boundary marker(s) (NONE = no marker)
MARKER_HEATFLUX= ( cylinder, 0.0 )
%
% Farfield boundary marker(s) (NONE = no marker)
MARKER_FAR= ( farfield )
%
% Marker(s) of the surface to be plotted or designed
MARKER_PLOTTING= ( cylinder )
%
% Marker(s) of the surface where the functional (Cd, Cl, etc.) will be evaluated
MARKER_MONITORING= ( cylinder )

% ------------- COMMON PARAMETERS DEFINING THE NUMERICAL METHOD ---------------%
%
% Numerical method for spatial gradients (GREEN_GAUSS, WEIGHTED_LEAST_SQUARES)
NUM_METHOD_GRAD= WEIGHTED_LEAST_SQUARES
%
% Adjoint problem boundary condition (DRAG, LIFT, SIDEFORCE, MOMENT_X,
%                                     MOMENT_Y, MOMENT_Z, EFFICIENCY, 
%                                     EQUIVALENT_AREA, NEARFIELD_PRESSURE,
%                                     FORCE_X, FORCE_Y, FORCE_Z, THRUST, 
%                                     TORQUE, FREE_SURFACE, TOTAL_HEAT,
%                                     MAXIMUM_HEATFLUX, INVERSE_DESIGN_PRESSURE,
%                                     INVERSE_DESIGN_HEATFLUX)
OBJECTIVE_FUNCTION= DRAG
%
% Courant-Friedrichs-Lewy condition of the finest grid
CFL_NUMBER= 5.0
%
% Adaptive CFL number (NO, YES)
CFL_ADAPT= NO
%
% Parameters of the adaptive CFL number (factor down, factor up, CFL min value,
%                                        CFL max value )
CFL_ADAPT_PARAM= ( 1.5, 0.5, 1.0, 100.0 )
%
% Runge-Kutta alpha coefficients
RK_ALPHA_COEFF= ( 0.66667, 0.66667, 1.000000 )
%
% Number of total iterations
ITER= 150

% ------------------------ LINEAR SOLVER DEFINITION ---------------------------%
%
% Linear solver for the implicit (or discrete adjoint) formulation (BCGSTAB, FGMRES)
LINEAR_SOLVER= BCGSTAB
%
% Preconditioner of the Krylov linear solver (NONE, JACOBI, LINELET)
%LINEAR_SOLVER_PREC= NONE
%
% Min error of the linear solver for the implicit formulation
LINEAR_SOLVER_ERROR= 1E-8
%
% Max number of iterations of the linear solver for the implicit formulation
LINEAR_SOLVER_ITER= 2

% -------------------------- MULTIGRID PARAMETERS -----------------------------%
%
% Multi-Grid Levels (0 = no multi-grid)
MGLEVEL= 1
%
% Multi-grid cycle (V_CYCLE, W_CYCLE, FULLMG_CYCLE)
MGCYCLE= V_CYCLE
%
% Multi-grid pre-smoothing level
MG_PRE_SMOOTH= ( 1, 2, 3, 3 )
%
% Multi-grid post-smoothing level
MG_POST_SMOOTH= ( 0, 0, 0, 0 )
%
% Jacobi implicit smoothing of the correction
MG_CORRECTION_SMOOTH= ( 0, 0, 0, 0 )
%
% Damping factor for the residual restriction
MG_DAMP_RESTRICTION= 0.8
%
% Damping factor for the correction prolongation
MG_DAMP_PROLONGATION= 0.8

% -------------------- FLOW NUMERICAL METHOD DEFINITION -----------------------%
%
% Convective numerical method (JST, LAX-FRIEDRICH, CUSP, ROE, AUSM, HLLC,
%                              TURKEL_PREC, MSW)
CONV_NUM_METHOD_FLOW= JST
%
% 2nd and 4th order artificial dissipation coefficients
JST_SENSOR_COEFF= ( 0.0, 0.001 )
%
% Time discretization (RUNGE-KUTTA_EXPLICIT, EULER_IMPLICIT, EULER_EXPLICIT)
TIME_DISCRE_FLOW= EULER_IMPLICIT

% ---------------- ADJOINT-FLOW NUMERICAL METHOD DEFINITION -------------------%
%
% Convective numerical method (JST, LAX-FRIEDRICH, ROE)
CONV_NUM_METHOD_ADJFLOW= JST
%
% 2nd, and 4th order artificial dissipation coefficients
ADJ_JST_SENSOR_COEFF= ( 0.0, 0.001 )
%
% Reduction factor of the CFL coefficient in the adjoint problem
CFL_REDUCTION_ADJFLOW= 0.75
%
% Time discretization (RUNGE-KUTTA_EXPLICIT, EULER_IMPLICIT)
TIME_DISCRE_ADJFLOW= EULER_IMPLICIT

% ------------------------ GRID DEFORMATION PARAMETERS ------------------------%
%
% Kind of deformation (FFD_SETTING, HICKS_HENNE, PARABOLIC, NACA_4DIGITS, 
%                      DISPLACEMENT, ROTATION, FFD_CONTROL_POINT, 
%                      FFD_DIHEDRAL_ANGLE, FFD_TWIST_ANGLE, 
%                      FFD_ROTATION, FFD_CAMBER, FFD_THICKNESS, FFD_VOLUME)
DV_KIND= HICKS_HENNE
%
% Marker of the surface in which we are going apply the shape deformation
DV_MARKER= ( cylinder )
%
% Parameters of the shape deformation 
% 	- HICKS_HENNE ( Lower Surface (0)/Upper Surface (1)/Only one Surface (2), x_Loc )
% 	- NACA_4DIGITS ( 1st digit, 2nd digit, 3rd and 4th digit )
% 	- PARABOLIC ( Center, Thickness )
% 	- DISPLACEMENT ( x_Disp, y_Disp, z_Disp )
% 	- ROTATION ( x_Orig, y_Orig, z_Orig, x_End, y_End, z_End )
% 	- OBSTACLE ( Center, Bump size )
% 	- FFD_CONTROL_POINT ( FFD_BoxTag ID, i_Ind, j_Ind, k_Ind, x_Disp, y_Disp, z_Disp )
% 	- FFD_DIHEDRAL_ANGLE ( FFD_BoxTag ID, x_Orig, y_Orig, z_Orig, x_End, y_End, z_End )
% 	- FFD_TWIST_ANGLE ( FFD_BoxTag ID, x_Orig, y_Orig, z_Orig, x_End, y_End, z_End )
% 	- FFD_ROTATION ( FFD_BoxTag ID, x_Orig, y_Orig, z_Orig, x_End, y_End, z_End )
% 	- FFD_CAMBER ( FFD_BoxTag ID, i_Ind, j_Ind )
% 	- FFD_THICKNESS ( FFD_BoxTag ID, i_Ind, j_Ind )
% 	- FFD_VOLUME ( FFD_BoxTag ID, i_Ind, j_Ind )
DV_PARAM= ( 1, 0.5 )
%
% New value of the shape deformation
DV_VALUE= 0.05
%
% Hold the grid fixed in a region (NO, YES)
HOLD_GRID_FIXED= NO
%
% Coordinates of the box where the grid will be deformed (Xmin, Ymin, Zmin, Xmax, Ymax, Zmax)
HOLD_GRID_FIXED_COORD= ( -0.5, -0.49, 0.0, 2.5, 0.49, 0.0 )

% --------------------------- CONVERGENCE PARAMETERS --------------------------%
%
% Min value of the residual (log10 of the residual)
CONV_RESIDUAL_MINVAL= -14
%
% Start convergence criteria at iteration number
CONV_STARTITER= 10
%
% Number of elements to apply the criteria
CONV_CAUCHY_ELEMS= 100
%
% Epsilon to control the series convergence
CONV_CAUCHY_EPS= 1E-6
%

% ------------------------- INPUT/OUTPUT INFORMATION --------------------------%
%
% Mesh input file
MESH_FILENAME= mesh_cylinder_lam.su2
%
% Mesh input file format (SU2, CGNS, NETCDF_ASCII)
MESH_FORMAT= SU2
%
% Mesh output file
MESH_OUT_FILENAME= mesh_out.su2
%
% Restart flow input file
SOLUTION_FILENAME= solution_flow.dat
%
% Restart adjoint input file
SOLUTION_ADJ_FILENAME= solution_adj.dat
%
TABULAR_FORMAT= CSV
%
% Output file convergence history (w/o extension) 
CONV_FILENAME= history
%
% Output file restart flow
RESTART_FILENAME= restart_flow.dat
%
% Output file restart adjoint
RESTART_ADJ_FILENAME= restart_adj.dat
%
% Output file flow (w/o extension) variables
VOLUME_FILENAME= flow
%
% Output file adjoint (w/o extension) variables
VOLUME_ADJ_FILENAME= adjoint
%
% Output objective function gradient (using continuous adjoint)
GRAD_OBJFUNC_FILENAME= of_grad.dat
%
% Output file surface flow coefficient (w/o extension)
SURFACE_FILENAME= surface_flow
%
% Output file surface adjoint coefficient (w/o extension)
SURFACE_ADJ_FILENAME= surface_adjoint
%
% Writing solution file frequency
OUTPUT_WRT_FREQ= 1000
%
% 
% Screen output
SCREEN_OUTPUT= (INNER_ITER, RMS_ADJ_DENSITY, RMS_ADJ_ENERGY, SENS_GEO, SENS_AOA)
%
OUTPUT_FILES=(RESTART_ASCII)
% --------------------- OPTIMAL SHAPE DESIGN DEFINITION -----------------------%
%
% Available flow based objective functions or constraint functions
%    DRAG, LIFT, SIDEFORCE, EFFICIENCY, BUFFET, 
%    FORCE_X, FORCE_Y, FORCE_Z,
%    MOMENT_X, MOMENT_Y, MOMENT_Z,
%    THRUST, TORQUE, FIGURE_OF_MERIT,
%    EQUIVALENT_AREA, NEARFIELD_PRESSURE,
%    TOTAL_HEATFLUX, MAXIMUM_HEATFLUX,
%    INVERSE_DESIGN_PRESSURE, INVERSE_DESIGN_HEATFLUX,
%    SURFACE_TOTAL_PRESSURE, SURFACE_MASSFLOW
%    SURFACE_STATIC_PRESSURE, SURFACE_MACH
%
% Available geometrical based objective functions or constraint functions
%    AIRFOIL_AREA, AIRFOIL_THICKNESS, AIRFOIL_CHORD, AIRFOIL_TOC, AIRFOIL_AOA,
%    WING_VOLUME, WING_MIN_THICKNESS, WING_MAX_THICKNESS, WING_MAX_CHORD, WING_MIN_TOC, WING_MAX_TWIST, WING_MAX_CURVATURE, WING_MAX_DIHEDRAL
%    STATION#_WIDTH, STATION#_AREA, STATION#_THICKNESS, STATION#_CHORD, STATION#_TOC,
%    STATION#_TWIST (where # is the index of the station defined in GEO_LOCATION_STATIONS)
%
% Available design variables
% 2D Design variables
%    FFD_CONTROL_POINT_2D   (  19, Scale | Mark. List | FFD_BoxTag, i_Ind, j_Ind, x_Mov, y_Mov )
%    FFD_CAMBER_2D          (  20, Scale | Mark. List | FFD_BoxTag, i_Ind )
%    FFD_THICKNESS_2D       (  21, Scale | Mark. List | FFD_BoxTag, i_Ind )
%    FFD_TWIST_2D           (  22, Scale | Mark. List | FFD_BoxTag, x_Orig, y_Orig )
%    HICKS_HENNE            (  30, Scale | Mark. List | Lower(0)/Upper(1) side, x_Loc )
%    ANGLE_OF_ATTACK        ( 101, Scale | Mark. List | 1.0 )
%
% 3D Design variables
%    FFD_CONTROL_POINT      (  11, Scale | Mark. List | FFD_BoxTag, i_Ind, j_Ind, k_Ind, x_Mov, y_Mov, z_Mov )
%    FFD_NACELLE            (  12, Scale | Mark. List | FFD_BoxTag, rho_Ind, theta_Ind, phi_Ind, rho_Mov, phi_Mov )
%    FFD_GULL               (  13, Scale | Mark. List | FFD_BoxTag, j_Ind )
%    FFD_CAMBER             (  14, Scale | Mark. List | FFD_BoxTag, i_Ind, j_Ind )
%    FFD_TWIST              (  15, Scale | Mark. List | FFD_BoxTag, j_Ind, x_Orig, y_Orig, z_Orig, x_End, y_End, z_End )
%    FFD_THICKNESS          (  16, Scale | Mark. List | FFD_BoxTag, i_Ind, j_Ind )
%    FFD_ROTATION           (  18, Scale | Mark. List | FFD_BoxTag, x_Axis, y_Axis, z_Axis, x_Turn, y_Turn, z_Turn )
%    FFD_ANGLE_OF_ATTACK    (  24, Scale | Mark. List | FFD_BoxTag, 1.0 )
%
% Global design variables
%    TRANSLATION            (   1, Scale | Mark. List | x_Disp, y_Disp, z_Disp )
%    ROTATION               (   2, Scale | Mark. List | x_Axis, y_Axis, z_Axis, x_Turn, y_Turn, z_Turn )

DEFINITION_DV= ( 30, 1.0 | cylinder | 0, 0.961538461538 ); ( 30, 1.0 | cylinder | 0, 0.923076923077 ); ( 30, 1.0 | cylinder | 0, 0.884615384615 ); ( 30, 1.0 | cylinder | 0, 0.846153846154 ); ( 30, 1.0 | cylinder | 0, 0.807692307692 ); ( 30, 1.0 | cylinder | 0, 0.769230769231 ); ( 30, 1.0 | cylinder | 0, 0.730769230769 ); ( 30, 1.0 | cylinder | 0, 0.692307692308 ); ( 30, 1.0 | cylinder | 0, 0.653846153846 ); ( 30, 1.0 | cylinder | 0, 0.615384615385 ); ( 30, 1.0 | cylinder | 0, 0.576923076923 ); ( 30, 1.0 | cylinder | 0, 0.538461538462 ); ( 30, 1.0 | cylinder | 0, 0.5 ); ( 30, 1.0 | cylinder | 0, 0.461538461538 ); ( 30, 1.0 | cylinder | 0, 0.423076923077 ); ( 30, 1.0 | cylinder | 0, 0.384615384615 ); ( 30, 1.0 | cylinder | 0, 0.346153846154 ); ( 30, 1.0 | cylinder | 0, 0.307692307692 ); ( 30, 1.0 | cylinder | 0, 0.269230769231 ); ( 30, 1.0 | cylinder | 0, 0.230769230769 ); ( 30, 1.0 | cylinder | 0, 0.192307692308 ); ( 30, 1.0 | cylinder | 0, 0.153846153846 ); ( 30, 1.0 | cylinder | 0, 0.115384615385 ); ( 30, 1.0 | cylinder | 0, 0.0769230769231 ); ( 30, 1.0 | cylinder | 0, 0.0384615384615 ); ( 30, 1.0 | cylinder | 1, 0.0384615384615 ); ( 30, 1.0 | cylinder | 1, 0.0769230769231 ); ( 30, 1.0 | cylinder | 1, 0.115384615385 ); ( 30, 1.0 | cylinder | 1, 0.153846153846 ); ( 30, 1.0 | cylinder | 1, 0.192307692308 ); ( 30, 1.0 | cylinder | 1, 0.230769230769 ); ( 30, 1.0 | cylinder | 1, 0.269230769231 ); ( 30, 1.0 | cylinder | 1, 0.307692307692 ); ( 30, 1.0 | cylinder | 1, 0.346153846154 ); ( 30, 1.0 | cylinder | 1, 0.384615384615 ); ( 30, 1.0 | cylinder | 1, 0.423076923077 ); ( 30, 1.0 | cylinder | 1, 0.461538461538 ); ( 30, 1.0 | cylinder | 1, 0.5 ); ( 30, 1.0 | cylinder | 1, 0.538461538462 ); ( 30, 1.0 | cylinder | 1, 0.576923076923 ); ( 30, 1.0 | cylinder | 1, 0.615384615385 ); ( 30, 1.0 | cylinder | 1, 0.653846153846 ); ( 30, 1.0 | cylinder | 1, 0.692307692308 ); ( 30, 1.0 | cylinder | 1, 0.730769230769 ); ( 30, 1.0 | cylinder | 1, 0.769230769231 ); ( 30, 1.0 | cylinder | 1, 0.807692307692 ); ( 30, 1.0 | cylinder | 1, 0.846153846154 ); ( 30, 1.0 | cylinder | 1, 0.884615384615 ); ( 30, 1.0 | cylinder | 1, 0.923076923077 ); ( 30, 1.0 | cylinder | 1, 0.961538461538 )
