%%%%%%%%%%%%%%%%%%%%%%%%%%%%%%%%%%%%%%%%%%%%%%%%%%%%%%%%%%%%%%%%%%%%%%%%%%%%%%%%

% ------------- DIRECT, ADJOINT, AND LINEARIZED PROBLEM DEFINITION ------------%
%
% Physical governing equations (EULER, NAVIER_STOKES,
%                               FEM_EULER, FEM_NAVIER_STOKES,
%                               WAVE_EQUATION, HEAT_EQUATION, LINEAR_ELASTICITY,
%                               POISSON_EQUATION)
PHYSICAL_PROBLEM= FEM_NAVIER_STOKES
%
% Mathematical problem (DIRECT, CONTINUOUS_ADJOINT)
MATH_PROBLEM= DIRECT
%
% Specify the verification solution(NO_VERIFICATION_SOLUTION, INVISCID_VORTEX,
%                                   RINGLEB, NS_UNIT_QUAD, TAYLOR_GREEN_VORTEX,
%                                   MMS_NS_UNIT_QUAD, MMS_NS_TWO_HALF_SPHERES,
%                                   MMS_INC_EULER, MMS_INC_NS,
%                                   USER_DEFINED_SOLUTION)
KIND_VERIFICATION_SOLUTION= MMS_NS_TWO_HALF_SPHERES
%
% Restart solution (NO, YES)
RESTART_SOL= NO
%RESTART_SOL= YES

% ----------- COMPRESSIBLE AND INCOMPRESSIBLE FREE-STREAM DEFINITION ----------%
%
% Mach number (non-dimensional, based on the free-stream values)
MACH_NUMBER= 0.1
%
% Reynolds number (non-dimensional, based on the free-stream values)
REYNOLDS_NUMBER= 40
%
% Angle of attack (degrees)
AoA= 0.0
%
% -------------- COMPRESSIBLE AND INCOMPRESSIBLE FLUID CONSTANTS --------------%
%
% Different gas model (STANDARD_AIR, IDEAL_GAS, VW_GAS, PR_GAS)
FLUID_MODEL= IDEAL_GAS
%
% Ratio of specific heats (1.4 (air), only for compressible flows)
GAMMA_VALUE= 1.4
%
% Specific gas constant (287.87 J/kg*K (air), only for compressible flows)
GAS_CONSTANT= 287.87

% --------------------------- VISCOSITY MODEL ---------------------------------%
%
%
% Viscosity model (SUTHERLAND, CONSTANT_VISCOSITY).
VISCOSITY_MODEL= CONSTANT_VISCOSITY
%
% Molecular Viscosity that would be constant (1.716E-5 by default)
MU_CONSTANT= 10.0
%
% --------------------------- THERMAL CONDUCTIVITY MODEL ----------------------%
%
% Conductivity model (CONSTANT_CONDUCTIVITY, CONSTANT_PRANDTL).
CONDUCTIVITY_MODEL= CONSTANT_PRANDTL
%
% Laminar Prandtl number
PRANDTL_LAM= 0.72

% ---------------------- REFERENCE VALUE DEFINITION ---------------------------%
%
% Reference origin for moment computation
REF_ORIGIN_MOMENT_X = 0.00
REF_ORIGIN_MOMENT_Y = 0.00
REF_ORIGIN_MOMENT_Z = 0.00
%
% Reference length for pitching, rolling, and yawing non-dimensional moment
REF_LENGTH= 1.0
%
% Reference area for force coefficients (0 implies automatic calculation)
REF_AREA= 1.0
%
% Flow non-dimensionalization (DIMENSIONAL, FREESTREAM_PRESS_EQ_ONE,
%                              FREESTREAM_VEL_EQ_MACH, FREESTREAM_VEL_EQ_ONE)
REF_DIMENSIONALIZATION= DIMENSIONAL
%REF_DIMENSIONALIZATION= FREESTREAM_PRESS_EQ_ONE
%
% ----------------------- BOUNDARY CONDITION DEFINITION -----------------------%
%
%MARKER_CUSTOM= ( PlaneZ0, OuterSphere, InnerSphere )
%
MARKER_CUSTOM= ( PlaneZ0 )
%
% Marker adiabatic wall (NONE = no marker)
MARKER_HEATFLUX= ( InnerSphere, 0.0 )
%
% Marker isothermal wall (NONE = no marker)
MARKER_ISOTHERMAL= ( OuterSphere, 400.0 )
%

% ------------- COMMON PARAMETERS TO DEFINE THE NUMERICAL METHOD --------------%
%
% Courant-Friedrichs-Lewy condition of the finest grid
CFL_NUMBER= 0.2
%CFL_NUMBER=1.e-30
%
% Number of total iterations
EXT_ITER= 101
%
% Runge-Kutta alpha coefficients
RK_ALPHA_COEFF= ( 0.66667, 0.66667, 1.000000 )

% ------------------ FEM FLOW NUMERICAL METHOD DEFINITION ----------------------%
%
% Convective numerical method (DG)
NUM_METHOD_FEM_FLOW= DG
%
% Riemann solver used for DG (ROE, LAX-FRIEDRICH, AUSM, AUSMPW+, HLLC, VAN_LEER)
RIEMANN_SOLVER_FEM= ROE
%
% Constant factor applied for quadrature with straight elements (2.0 by default)
QUADRATURE_FACTOR_STRAIGHT_FEM = 2.0
%
% Constant factor applied for quadrature with curved elements (3.0 by default)
QUADRATURE_FACTOR_CURVED_FEM = 3.0
%
% Factor for the symmetrizing terms in the DG FEM discretization (1.0 by default)
THETA_INTERIOR_PENALTY_DG_FEM = 1.0
%
% Compute the entropy in the fluid model (YES, NO)
COMPUTE_ENTROPY_FLUID_MODEL= NO
%
% Use the lumped mass matrix for steady DGFEM computations (NO, YES)
USE_LUMPED_MASSMATRIX_DGFEM= YES
%
% Time discretization (RUNGE-KUTTA_EXPLICIT)
TIME_DISCRE_FEM_FLOW= RUNGE-KUTTA_EXPLICIT
%
% --------------------------- CONVERGENCE PARAMETERS --------------------------%
%
% Convergence criteria (CAUCHY, RESIDUAL)
CONV_CRITERIA= RESIDUAL
%
% Residual reduction (order of magnitude with respect to the initial value)
RESIDUAL_REDUCTION= 6
%
% Min value of the residual (log10 of the residual)
RESIDUAL_MINVAL= -8
%
% Start Cauchy criteria at iteration number
STARTCONV_ITER= 10
%
% Number of elements to apply the criteria
CAUCHY_ELEMS= 100
%
% Epsilon to control the series convergence
CAUCHY_EPS= 1E-6
%
% Function to apply the criteria (LIFT, DRAG, SENS_GEOMETRY, SENS_MACH,
%                                 DELTA_LIFT, DELTA_DRAG)
CAUCHY_FUNC_FLOW= DRAG

% ------------------------- INPUT/OUTPUT INFORMATION --------------------------%
% Mesh input file
MESH_FILENAME= SphereInSphereStructured_nPoly3.su2
%
% Mesh input file format (SU2, CGNS, NETCDF_ASCII)
MESH_FORMAT= SU2
%
% Mesh output file
MESH_OUT_FILENAME= mesh_out.su2
%
% Restart flow input file
SOLUTION_FLOW_FILENAME= restart_flow.dat
%
% Restart adjoint input file
SOLUTION_ADJ_FILENAME= solution_adj.dat
%
% Output file format (TECPLOT, PARAVIEW, TECPLOT_BINARY)
OUTPUT_FORMAT= PARAVIEW_BINARY
%
% Output file convergence history (w/o extension) 
CONV_FILENAME= history
%
% Output file restart flow
RESTART_FLOW_FILENAME= restart_flow.dat
%
% Output file restart adjoint
RESTART_ADJ_FILENAME= restart_adj.dat
%
% Output file flow (w/o extension) variables
VOLUME_FLOW_FILENAME= flow
%
% Output file adjoint (w/o extension) variables
VOLUME_ADJ_FILENAME= adjoint
%
% Output Objective function gradient (using continuous adjoint)
GRAD_OBJFUNC_FILENAME= of_grad.dat
%
% Output file surface flow coefficient (w/o extension)
SURFACE_FLOW_FILENAME= surface_flow
%
% Output file surface adjoint coefficient (w/o extension)
SURFACE_ADJ_FILENAME= surface_adjoint
%
% Writing solution file frequency
WRT_SOL_FREQ= 25000
%
% Writing convergence history frequency
WRT_CON_FREQ= 1
