%%%%%%%%%%%%%%%%%%%%%%%%%%%%%%%%%%%%%%%%%%%%%%%%%%%%%%%%%%%%%%%%%%%%%%%%%%%%%%%%%
%                                                                               %
% SU2 configuration file                                                        %
% Case description: 3D cylinder array with CHT couplings                        %
% Author: T. Kattmann                                                           %
% Institution: Robert Bosch GmbH                                                %
% Date: 2020.12.15                                                              %
% File Version 8.0.0 "Harrier"                                                  %
%                                                                               %
%%%%%%%%%%%%%%%%%%%%%%%%%%%%%%%%%%%%%%%%%%%%%%%%%%%%%%%%%%%%%%%%%%%%%%%%%%%%%%%%%
%
SOLVER= MULTIPHYSICS
RESTART_SOL= YES
%
CONFIG_LIST = (configFluid.cfg, configSolid.cfg)
%
MARKER_ZONE_INTERFACE= (fluid_bottom_interface, solid_bottom_interface, fluid_pin1, solid_pin1, fluid_pin2, solid_pin2, fluid_pin3, solid_pin3 )
%
MARKER_CHT_INTERFACE= (fluid_bottom_interface, solid_bottom_interface, fluid_pin1, solid_pin1, fluid_pin2, solid_pin2, fluid_pin3, solid_pin3 )
%
OUTER_ITER = 31
%
CONV_RESIDUAL_MINVAL= -26
SCREEN_OUTPUT= (OUTER_ITER, BGS_PRESSURE[0], BGS_TEMPERATURE[0], BGS_TEMPERATURE[1], STREAMWISE_MASSFLOW[0], STREAMWISE_DP[0], AVG_TEMPERATURE[1], TOTAL_HEATFLUX[0] )
SCREEN_WRT_FREQ_OUTER= 100
%
HISTORY_OUTPUT= ( ITER, RMS_RES[0], RMS_RES[1], STREAMWISE_PERIODIC[0], FLOW_COEFF[0], HEAT[1] )
%
OUTPUT_FILES= (RESTART, PARAVIEW_MULTIBLOCK)
OUTPUT_WRT_FREQ= 2500
%
MESH_FILENAME= 3D_chtPinArray_coarse.su2
%
% ----------------------- DESIGN VARIABLE PARAMETERS --------------------------%
%
% These are just default parameters so that we can run SU2_DOT_AD, they have no physical meaning for this test case.
%
DV_KIND= HICKS_HENNE
DV_MARKER= (fluid_pin2, solid_pin2)
DV_PARAM= (0.0, 0.5)
DV_VALUE= 0.1
