%%%%%%%%%%%%%%%%%%%%%%%%%%%%%%%%%%%%%%%%%%%%%%%%%%%%%%%%%%%%%%%%%%%%%%%%%%%%%%%%
%                                                                              %
% SU2 configuration file                                                       %
% Case description: Turbulent flow over flat plate(2DZPH)                      %
% Author: Sunoh. Kang                                                          %
% Institution: Pusan National University                                       %
% Date: 2024.04.30                                                             %
% File Version 8.2.0 "Harrier"                                                 %
%                                                                              %
%%%%%%%%%%%%%%%%%%%%%%%%%%%%%%%%%%%%%%%%%%%%%%%%%%%%%%%%%%%%%%%%%%%%%%%%%%%%%%%%

% ------------- DIRECT, ADJOINT, AND LINEARIZED PROBLEM DEFINITION ------------%
%
SOLVER= RANS
KIND_TURB_MODEL= SST
SST_OPTIONS= V2003m, COMPRESSIBILITY-WILCOX
MATH_PROBLEM= DIRECT
RESTART_SOL= NO

% ------------------------ COMPRESSIBLE FREE-STREAM DEFINITION ----------------%
%
MACH_NUMBER= 5.0
AOA= 0.000
INIT_OPTION= TD_CONDITIONS
FREESTREAM_OPTION= TEMPERATURE_FS
FREESTREAM_TEMPERATURE= 300.3333
FREESTREAM_PRESSURE= 13753.90558
FREESTREAM_TURBULENCEINTENSITY = 0.00002
FREESTREAM_TURB2LAMVISCRATIO = 0.009
REF_DIMENSIONALIZATION= DIMENSIONAL
REYNOLDS_NUMBER= 15E6

% ---- IDEAL GAS, POLYTPOPIC, VAN DER WALLS AND PENG ROBINSOPN CNSTANTS ------ %
%
FLUID_MODEL= IDEAL_GAS
GAMMA_VALUE= 1.4
GAS_CONSTANT= 287.058
ACENTRIC_FACTOR= 0.035
SPECIFIC_HEAT_CP= 1004.703
THERMAL_EXPANSION_COEFF= 0.00347
MOLECULAR_WEIGHT= 28.96

% --------------------------- VISCOSITY MODEL ---------------------------------%
%

VISCOSITY_MODEL= SUTHERLAND
MU_REF= 1.716E-5
MU_T_REF= 273.15
SUTHERLAND_CONSTANT= 110.4

% ------------------------ THERMAL CONDUCTIVITY MODEL -------------------------%
%

CONDUCTIVITY_MODEL= CONSTANT_PRANDTL
PRANDTL_LAM= 0.72
TURBULENT_CONDUCTIVITY_MODEL= CONSTANT_PRANDTL_TURB
PRANDTL_TURB= 0.9

% ---------------------- REFERENCE VALUE DEFINITION ---------------------------%
%

REF_ORIGIN_MOMENT_X = 0.00
REF_ORIGIN_MOMENT_Y = 0.00
REF_ORIGIN_MOMENT_Z = 0.00
REF_LENGTH= 1.0
REF_AREA= 1.0

% -------------------- BOUNDARY CONDITION DEFINITION --------------------------%
%

MARKER_PLOTTING = ( wall )
MARKER_SUPERSONIC_INLET= ( inlet, 300.3333 , 13753.90558 , 1737.082226 , 0.0 , 0.0 )
MARKER_FAR= ( farfield )
MARKER_SYM= ( symmetry )
MARKER_SUPERSONIC_OUTLET= (outlet, 34384.76396)
MARKER_ISOTHERMAL= ( wall, 327.36297)

% ------------- COMMON PARAMETERS DEFINING THE NUMERICAL METHOD ---------------%
%

NUM_METHOD_GRAD= WEIGHTED_LEAST_SQUARES
CFL_NUMBER= 0.5
CFL_ADAPT= YES
CFL_ADAPT_PARAM= ( 0.1, 1.5, 0.5, 50.0 )

% --------- SLOPE LIMITER DEFINITION, DISSIPATION SENSOR DEFINITION -----------------%
%

MUSCL_FLOW= YES 
SLOPE_LIMITER_FLOW= VENKATAKRISHNAN_WANG
SLOPE_LIMITER_TURB= NONE
VENKAT_LIMITER_COEFF= 0.05
JST_SENSOR_COEFF= (0.5, 0.02)

% ------------------------ LINEAR SOLVER DEFINITION ---------------------------%
%

LINEAR_SOLVER= FGMRES
LINEAR_SOLVER_PREC= LU_SGS
LINEAR_SOLVER_ERROR= 1E-6
LINEAR_SOLVER_ITER= 5

% -------------------- FLOW NUMERICAL METHOD DEFINITION -----------------------%
%

CONV_NUM_METHOD_FLOW= AUSM
TIME_DISCRE_FLOW= EULER_IMPLICIT

% -------------------- TURBULENT NUMERICAL METHOD DEFINITION ------------------%
%

CONV_NUM_METHOD_TURB= SCALAR_UPWIND
TIME_DISCRE_TURB= EULER_IMPLICIT

% ------------------------- SCREEN/HISTORY VOLUME OUTPUT --------------------------%
%

SCREEN_OUTPUT= (INNER_ITER, RMS_DENSITY, RMS_MOMENTUM-X, RMS_MOMENTUM-Y, RMS_ENERGY, RMS_TKE, RMS_DISSIPATION)
SCREEN_WRT_FREQ_INNER= 1
SCREEN_WRT_FREQ_OUTER= 1 
SCREEN_WRT_FREQ_TIME= 1
HISTORY_WRT_FREQ_INNER= 1
HISTORY_WRT_FREQ_OUTER= 1 
HISTORY_WRT_FREQ_TIME= 1
OUTPUT_WRT_FREQ= 1000

% ------------------------- INPUT/OUTPUT FILE INFORMATION --------------------------%
%

MESH_FILENAME= mesh_flatplate_turb_137x97.su2
MESH_FORMAT= SU2
MESH_OUT_FILENAME= mesh_out.su2
SOLUTION_FILENAME= restart_flow.dat
SOLUTION_ADJ_FILENAME= solution_adj.dat
OUTPUT_FILES= (RESTART, PARAVIEW, SURFACE_PARAVIEW, TECPLOT, SURFACE_TECPLOT, CSV, SURFACE_CSV )
CONV_FILENAME= history
BREAKDOWN_FILENAME= forces_breakdown.dat
RESTART_FILENAME= restart_flow.dat
RESTART_ADJ_FILENAME= restart_adj.dat

% ------------------------------- SOLVER CONTROL ------------------------------%
%

ITER= 100
OUTER_ITER= 1
TIME_ITER= 100
CONV_RESIDUAL_MINVAL= -14
CONV_STARTITER= 10
CONV_CAUCHY_ELEMS= 100
CONV_CAUCHY_EPS= 1E-10
