%%%%%%%%%%%%%%%%%%%%%%%%%%%%%%%%%%%%%%%%%%%%%%%%%%%%%%%%%%%%%%%%%%%%%%%%%%%%%%%%
% SU2 configuration file                                                       %
% Case description: Fluid Structure Interaction - Wall in channel              %
% Author: R.Sanchez                                                            %
% Institution: Imperial College London                                         %
% Date: 2016.02.01                                                             %
%%%%%%%%%%%%%%%%%%%%%%%%%%%%%%%%%%%%%%%%%%%%%%%%%%%%%%%%%%%%%%%%%%%%%%%%%%%%%%%%
SOLVER= ELASTICITY

MATH_PROBLEM= DIRECT
RESTART_SOL= YES

READ_BINARY_RESTART= NO

BGS_RELAXATION = FIXED_PARAMETER
STAT_RELAX_PARAMETER= 0.5

%SCREEN_OUTPUT=(TIME_ITER, OUTER_ITER, INNER_ITER, BGS_DISP_X, BGS_DISP_Y)
INNER_ITER=10
LINEAR_SOLVER= FGMRES
LINEAR_SOLVER_PREC= LU_SGS
LINEAR_SOLVER_ERROR= 1E-6
LINEAR_SOLVER_ITER= 1000

ELASTICITY_MODULUS=5E4
MATERIAL_DENSITY=50
FORMULATION_ELASTICITY_2D = PLANE_STRESS
POISSON_RATIO=0.3
TIME_DISCRE_FEA= NEWMARK_IMPLICIT
NEWMARK_BETA=0.36
NEWMARK_GAMMA=0.7

PREDICTOR = YES
RELAXATION = YES

GEOMETRIC_CONDITIONS= LARGE_DEFORMATIONS
MATERIAL_MODEL= NEO_HOOKEAN

MARKER_CLAMPED = ( clamped )
MARKER_PRESSURE= ( wallDownS, 0.0, wallUpperS, 0.0, wallUpwS, 0.0)
MARKER_FLUID_LOAD = (wallDownS, wallUpperS, wallUpwS)

MULTIZONE_MESH= NO
MESH_FILENAME= meshFEA.su2

MESH_FORMAT= SU2

OUTPUT_WRT_FREQ= 1

VOLUME_FILENAME= results_wall
RESTART_FILENAME= solution_wall.dat
SOLUTION_FILENAME= solution_wall.dat
