%%%%%%%%%%%%%%%%%%%%%%%%%%%%%%%%%%%%%%%%%%%%%%%%%%%%%%%%%%%%%%%%%%%%%%%%%%%%%%%%
% SU2 configuration file                                                       %
% Case description: Fluid Structure Interaction - Wall in channel              %
% Author: R.Sanchez                                                            %
% Institution: Imperial College London                                         %
% Date: 2016.02.01                                                             %
%%%%%%%%%%%%%%%%%%%%%%%%%%%%%%%%%%%%%%%%%%%%%%%%%%%%%%%%%%%%%%%%%%%%%%%%%%%%%%%%
SOLVER= NAVIER_STOKES

DEFORM_MESH= YES
MARKER_DEFORM_MESH= (wallUpwF, wallDownF, wallUpperF)
INNER_ITER=50

%SCREEN_OUTPUT=(TIME_ITER, OUTER_ITER, INNER_ITER, BGS_DENSITY, BGS_ENERGY)

MATH_PROBLEM= DIRECT
RESTART_SOL= YES
READ_BINARY_RESTART= NO

TIME_MARCHING= DUAL_TIME_STEPPING-2ND_ORDER
MAX_TIME= 4.01

KIND_TURB_MODEL= NONE
AOA= 0.0
SIDESLIP_ANGLE= 0.0
REYNOLDS_NUMBER= 10
MACH_NUMBER = 0.2
MACH_MOTION = 0.2
INIT_OPTION = TD_CONDITIONS
FREESTREAM_OPTION = DENSITY_FS
FREESTREAM_DENSITY = 1.0
FREESTREAM_PRESSURE = 17.85714286
FREESTREAM_TEMPERATURE = 0.062207438
VISCOSITY_MODEL = CONSTANT_VISCOSITY
MU_CONSTANT = 1.6E-3
REF_ORIGIN_MOMENT_X = 0.00
REF_ORIGIN_MOMENT_Y = 0.00
REF_ORIGIN_MOMENT_Z = 0.00
REF_LENGTH= 0.016
REF_AREA= 0.016
REYNOLDS_LENGTH=0.016
MARKER_HEATFLUX= ( wallUpwF, 0.0, wallDownF, 0.0, wallUpperF, 0.0)
MARKER_INLET= ( inlet, 0.062207438, 18.36216288, 1.0, 0.0, 0.0 )
MARKER_OUTLET= ( outlet, 17.85714286)
MARKER_EULER= ( upper, lower )
MARKER_PLOTTING= ( wallUpwF, wallDownF, wallUpperF )
MARKER_MONITORING= ( wallUpwF, wallDownF, wallUpperF )
NUM_METHOD_GRAD= WEIGHTED_LEAST_SQUARES
RK_ALPHA_COEFF= ( 0.66667, 0.66667, 1.000000 )
LINEAR_SOLVER= FGMRES
LINEAR_SOLVER_PREC= LU_SGS
LINEAR_SOLVER_ERROR= 1E-6
LINEAR_SOLVER_ITER= 2
CONV_NUM_METHOD_FLOW= ROE
MUSCL_FLOW= YES
VENKAT_LIMITER_COEFF= 1.0
JST_SENSOR_COEFF= ( 0.5, 0.02 )
TIME_DISCRE_FLOW= EULER_IMPLICIT
CONV_RESIDUAL_MINVAL= -10
CONV_STARTITER= 10
CONV_CAUCHY_ELEMS= 100
CONV_CAUCHY_EPS= 1E-5

MULTIZONE_MESH= NO
MESH_FILENAME= meshFlow.su2
DEFORM_NONLINEAR_ITER= 1
DEFORM_LINEAR_SOLVER= FGMRES
DEFORM_LINEAR_SOLVER_PREC= LU_SGS
DEFORM_LINEAR_SOLVER_ITER= 500
DEFORM_STIFFNESS_TYPE= WALL_DISTANCE
DEFORM_POISSONS_RATIO= 1e6

MESH_FORMAT= SU2
TABULAR_FORMAT= CSV
OUTPUT_WRT_FREQ= 1

VOLUME_FILENAME= results_flow
RESTART_FILENAME= solution_flow.dat
SOLUTION_FILENAME= solution_flow.dat
