%%%%%%%%%%%%%%%%%%%%%%%%%%%%%%%%%%%%%%%%%%%%%%%%%%%%%%%%%%%%%%%%%%%%%%%%%%%%%%%%
% SU2 configuration file                                                       %
% Case description: Fluid Structure Interaction - Wall in channel              %
% Author: R.Sanchez                                                            %
% Institution: Imperial College London                                         %
% Date: 2016.02.01                                                             %
%%%%%%%%%%%%%%%%%%%%%%%%%%%%%%%%%%%%%%%%%%%%%%%%%%%%%%%%%%%%%%%%%%%%%%%%%%%%%%%%
PHYSICAL_PROBLEM= ELASTICITY

MATH_PROBLEM= DIRECT
RESTART_SOL= YES

WRT_BINARY_RESTART= NO
READ_BINARY_RESTART= NO

BGS_RELAXATION = FIXED_PARAMETER
STAT_RELAX_PARAMETER= 0.5
RESIDUAL_REDUCTION_FSI= 5
RESIDUAL_MINVAL_FSI= -8

LINEAR_SOLVER= FGMRES
LINEAR_SOLVER_PREC= LU_SGS
LINEAR_SOLVER_ERROR= 1E-6
LINEAR_SOLVER_ITER= 1000

ELASTICITY_MODULUS=5E4
MATERIAL_DENSITY=50
FORMULATION_ELASTICITY_2D = PLANE_STRESS
POISSON_RATIO=0.3
DYNAMIC_ANALYSIS= YES
DYN_TIME= 4.01
TIME_DISCRE_FEA= NEWMARK_IMPLICIT
NEWMARK_BETA=0.36
NEWMARK_GAMMA=0.7

PREDICTOR = YES
RELAXATION = YES

GEOMETRIC_CONDITIONS= LARGE_DEFORMATIONS
MATERIAL_MODEL= NEO_HOOKEAN
NONLINEAR_FEM_INT_ITER = 10
RESIDUAL_FEM_UTOL = -7.0
RESIDUAL_FEM_RTOL = -7.0
RESIDUAL_FEM_ETOL = -7.0

MARKER_CLAMPED = ( clamped )
MARKER_PRESSURE= ( wallDownS, 0.0, wallUpperS, 0.0, wallUpwS, 0.0)

MULTIZONE_MESH= NO
MESH_FILENAME= meshFEA.su2

MESH_FORMAT= SU2
OUTPUT_FORMAT= PARAVIEW

WRT_CON_FREQ= 100
WRT_CON_FREQ_DUALTIME= 100
WRT_SOL_FREQ= 100
WRT_SOL_FREQ_DUALTIME= 100

VOLUME_STRUCTURE_FILENAME= results_wall
RESTART_STRUCTURE_FILENAME= solution_wall.dat
SOLUTION_STRUCTURE_FILENAME= solution_wall.dat

WRT_SRF_SOL = NO
WRT_CSV_SOL = NO
