%%%%%%%%%%%%%%%%%%%%%%%%%%%%%%%%%%%%%%%%%%%%%%%%%%%%%%%%%%%%%%%%%%%%%%%%%%%%%%%%
% SU2 configuration file                                                       %
% Case description: Fluid Structure Interaction - Wall in channel              %
% Author: R.Sanchez                                                            %
% Institution: Imperial College London                                         %
% Date: 2016.02.01                                                             %
%%%%%%%%%%%%%%%%%%%%%%%%%%%%%%%%%%%%%%%%%%%%%%%%%%%%%%%%%%%%%%%%%%%%%%%%%%%%%%%%
PHYSICAL_PROBLEM= FLUID_STRUCTURE_INTERACTION
FSI_FLUID_PROBLEM = NAVIER_STOKES
FSI_STRUCTURAL_PROBLEM = ELASTICITY
MATH_PROBLEM= DIRECT
RESTART_SOL= YES
WRT_BINARY_RESTART= NO
READ_BINARY_RESTART= NO
UNST_RESTART_ITER= 2
DYN_RESTART_ITER= 2
EXT_ITER= 3
UNST_TIMESTEP= 0.005
DYN_TIMESTEP= 0.005
FSI_ITER= 5
MARKER_ZONE_INTERFACE = (wallUpwF, wallUpwS, wallUpperF, wallUpperS, wallDownF, wallDownS)
CONSERVATIVE_INTERPOLATION = YES
BGS_RELAXATION = FIXED_PARAMETER
STAT_RELAX_PARAMETER= 0.5
RESIDUAL_REDUCTION_FSI= 5
RESIDUAL_MINVAL_FSI= -8
UNSTEADY_SIMULATION= DUAL_TIME_STEPPING-2ND_ORDER
UNST_TIME= 4.01
UNST_INT_ITER= 50
KIND_TURB_MODEL= NONE
REGIME_TYPE= COMPRESSIBLE
AOA= 0.0
SIDESLIP_ANGLE= 0.0
REYNOLDS_NUMBER= 10
MACH_NUMBER = 0.2
MACH_MOTION = 0.2
INIT_OPTION = TD_CONDITIONS
FREESTREAM_OPTION = DENSITY_FS
FREESTREAM_DENSITY = 1.0
FREESTREAM_PRESSURE = 17.85714286
FREESTREAM_TEMPERATURE = 0.062207438
VISCOSITY_MODEL = CONSTANT_VISCOSITY
MU_CONSTANT = 1.6E-3
REF_ORIGIN_MOMENT_X = 0.00
REF_ORIGIN_MOMENT_Y = 0.00
REF_ORIGIN_MOMENT_Z = 0.00
REF_LENGTH= 0.016
REF_AREA= 0.016
REYNOLDS_LENGTH=0.016
MARKER_HEATFLUX= ( wallUpwF, 0.0, wallDownF, 0.0, wallUpperF, 0.0)
MARKER_INLET= ( inlet, 0.062207438, 18.36216288, 1.0, 0.0, 0.0 )
MARKER_OUTLET= ( outlet, 17.85714286)
MARKER_EULER= ( upper, lower )
MARKER_PLOTTING= ( wallUpwF, wallDownF, wallUpperF )
MARKER_MONITORING= ( wallUpwF, wallDownF, wallUpperF )
NUM_METHOD_GRAD= WEIGHTED_LEAST_SQUARES
RK_ALPHA_COEFF= ( 0.66667, 0.66667, 1.000000 )
LINEAR_SOLVER= FGMRES
LINEAR_SOLVER_PREC= LU_SGS
LINEAR_SOLVER_ERROR= 1E-6
LINEAR_SOLVER_ITER= 2
CONV_NUM_METHOD_FLOW= ROE
MUSCL_FLOW= YES
VENKAT_LIMITER_COEFF= 1.0
JST_SENSOR_COEFF= ( 0.5, 0.02 )
TIME_DISCRE_FLOW= EULER_IMPLICIT
CONV_CRITERIA= RESIDUAL
RESIDUAL_REDUCTION= 3
RESIDUAL_MINVAL= -10
STARTCONV_ITER= 10
CAUCHY_ELEMS= 100
CAUCHY_EPS= 1E-5
CAUCHY_FUNC_FLOW= DRAG
ELASTICITY_MODULUS=5E4
MATERIAL_DENSITY=50
FORMULATION_ELASTICITY_2D = PLANE_STRESS
POISSON_RATIO=0.3
DYNAMIC_ANALYSIS= YES
DYN_TIME= 4.01
TIME_DISCRE_FEA= NEWMARK_IMPLICIT
NEWMARK_BETA=0.36
NEWMARK_GAMMA=0.7
GEOMETRIC_CONDITIONS= LARGE_DEFORMATIONS
MATERIAL_MODEL= NEO_HOOKEAN
NONLINEAR_FEM_INT_ITER = 10
RESIDUAL_FEM_UTOL = -7.0
RESIDUAL_FEM_RTOL = -7.0
RESIDUAL_FEM_ETOL = -7.0
FSI_LINEAR_SOLVER_PREC_STRUC= LU_SGS
FSI_LINEAR_SOLVER_ITER_STRUC = 1000
MARKER_CLAMPED = ( clamped )
MARKER_PRESSURE= ( wallDownS, 0.0, wallUpperS, 0.0, wallUpwS, 0.0)
MESH_FILENAME= meshFSI_2D.su2
DEFORM_NONLINEAR_ITER= 1
DEFORM_LINEAR_SOLVER= FGMRES
DEFORM_LINEAR_SOLVER_PREC= LU_SGS
DEFORM_LINEAR_ITER= 500
DEFORM_STIFFNESS_TYPE= WALL_DISTANCE
MESH_FORMAT= SU2
OUTPUT_FORMAT= PARAVIEW
WRT_CON_FREQ= 100
WRT_CON_FREQ_DUALTIME= 100
WRT_SOL_FREQ= 100
WRT_SOL_FREQ_DUALTIME= 100
VOLUME_FLOW_FILENAME= results_flow
RESTART_FLOW_FILENAME= restart_flow.dat
SOLUTION_FLOW_FILENAME= solution_flow.dat
VOLUME_STRUCTURE_FILENAME= results_wall
RESTART_STRUCTURE_FILENAME= restart_wall.dat
SOLUTION_STRUCTURE_FILENAME= solution_wall.dat
WRT_SRF_SOL = NO
WRT_CSV_SOL = NO
