%%%%%%%%%%%%%%%%%%%%%%%%%%%%%%%%%%%%%%%%%%%%%%%%%%%%%%%%%%%%%%%%%%%%%%%%%%%%%%%%
% SU2 configuration file                                                       %
% Case description: Fluid Structure Interaction - Wall in channel              %
% Author: R.Sanchez                                                            %
% Institution: Imperial College London                                         %
% Date: 2016.02.01                                                             %
%%%%%%%%%%%%%%%%%%%%%%%%%%%%%%%%%%%%%%%%%%%%%%%%%%%%%%%%%%%%%%%%%%%%%%%%%%%%%%%%
SOLVER= MULTIPHYSICS

CONFIG_LIST = (configFlow.cfg, configFEA.cfg)

MARKER_ZONE_INTERFACE = (wallUpwF, wallUpwS, wallUpperF, wallUpperS, wallDownF, wallDownS)

MESH_FILENAME= meshFSI_2D.su2
TIME_DOMAIN = YES
TIME_ITER = 5
TIME_STEP = 0.005

RESTART_SOL= YES
RESTART_ITER = 2 
OUTPUT_FILES=(RESTART_ASCII, PARAVIEW)
OUTER_ITER = 5
% Only required by the python scripts
MATH_PROBLEM = DIRECT
