%%%%%%%%%%%%%%%%%%%%%%%%%%%%%%%%%%%%%%%%%%%%%%%%%%%%%%%%%%%%%%%%%%%%%%%%%%%%%%%%
%                                                                              %
% SU2 configuration file                                                       %
% Case description: Fluid structure interaction - Beam in channel - 2D         %
% Author: Ruben Sanchez Fernandez                                              %
% Institution: Imperial College London                                         %
% Date: 2015.05.15                                                             %
% File Version 4.0.1 "Cardinal"                                                %
%                                                                              %
%%%%%%%%%%%%%%%%%%%%%%%%%%%%%%%%%%%%%%%%%%%%%%%%%%%%%%%%%%%%%%%%%%%%%%%%%%%%%%%%

% ------------- DIRECT, ADJOINT, AND LINEARIZED PROBLEM DEFINITION ------------%
%
% Physical governing equations (EULER, NAVIER_STOKES,
%                               TNE2_EULER, TNE2_NAVIER_STOKES,
%                               WAVE_EQUATION, HEAT_EQUATION, LINEAR_ELASTICITY,
%                               POISSON_EQUATION)
PHYSICAL_PROBLEM= FLUID_STRUCTURE_INTERACTION
%
% Physical governing equations for the fluid (EULER, NAVIER_STOKES)
FSI_FLUID_PROBLEM = NAVIER_STOKES
%
% Physical governing equations for the structure (LINEAR_ELASTICITY)
FSI_STRUCTURAL_PROBLEM = LINEAR_ELASTICITY
%
% Regime type (COMPRESSIBLE, INCOMPRESSIBLE, FREESURFACE)
REGIME_TYPE= COMPRESSIBLE
%
% If Navier-Stokes, kind of turbulent model (NONE, SA)
KIND_TURB_MODEL= NONE
%
% Mathematical problem (DIRECT, CONTINUOUS_ADJOINT)
MATH_PROBLEM= DIRECT
%
% Restart solution (NO, YES)
RESTART_SOL= NO

% -----------------------------------------------------------------------------%
% -------------------------- FLUID SIMULATION ---------------------------------%
% -----------------------------------------------------------------------------%

% ------------------------- UNSTEADY SIMULATION -------------------------------%
%
% Unsteady simulation (NO, TIME_STEPPING, DUAL_TIME_STEPPING-1ST_ORDER, 
%                      DUAL_TIME_STEPPING-2ND_ORDER, TIME_SPECTRAL)
UNSTEADY_SIMULATION= DUAL_TIME_STEPPING-2ND_ORDER
%
% Time Step for dual time stepping simulations (s)
UNST_TIMESTEP= 0.01
%
% Total Physical Time for dual time stepping simulations (s)
UNST_TIME= 3.01
% 300 iterations - 3.0 s
%
% Number of internal iterations (dual time method)
UNST_INT_ITER= 10

% ----------- COMPRESSIBLE AND INCOMPRESSIBLE FREE-STREAM DEFINITION ----------%
%
% Mach number (non-dimensional, based on the free-stream values)
MACH_NUMBER= 0.15
%
% Mach number for moving meshes (this is the number of the non-dimensionalization of the coefficients)
MACH_MOTION= 0.15
%
% Angle of attack (degrees)
AoA= 0.0
%
% Side-slip angle (degrees)
SIDESLIP_ANGLE= 0.0
%
% Free-stream temperature (288.15 K by default)
FREESTREAM_TEMPERATURE= 293.15
%
% Reynolds number (non-dimensional, based on the free-stream values)
REYNOLDS_NUMBER= 300.0


% ---------------------- REFERENCE VALUE DEFINITION ---------------------------%
%
% Reference origin for moment computation
REF_ORIGIN_MOMENT_X = 0.00
REF_ORIGIN_MOMENT_Y = 0.00
REF_ORIGIN_MOMENT_Z = 0.00
%
% Reference length for pitching, rolling, and yawing non-dimensional moment
REF_LENGTH_MOMENT= 1.6
%
% Reference area for force coefficients (0 implies automatic calculation)
REF_AREA= 1.6
%
% Length to compute the Reynolds number
REYNOLDS_LENGTH=1.0

% -------------------- BOUNDARY CONDITION DEFINITION --------------------------%
%
% Navier-Stokes wall boundary marker(s) (NONE = no marker)
MARKER_HEATFLUX= ( Wall_Upwind_F, 0.0, Wall_Upper_F, 0.0, Wall_Downwind_F, 0.0)
%
% Farfield boundary marker(s) (NONE = no marker)
MARKER_FAR= ( Inlet, Outlet )
%
% Farfield boundary marker(s) (NONE = no marker)
MARKER_EULER= ( Upper, Lower )
%
% Marker(s) of the surface to be plotted or designed
MARKER_PLOTTING= ( Wall_Upwind_F, Wall_Upper_F, Wall_Downwind_F)
%
% Marker(s) of the surface where the functional (Cd, Cl, etc.) will be evaluated
MARKER_MONITORING= ( Wall_Upwind_F, Wall_Upper_F, Wall_Downwind_F )

% -----------------------------------------------------------------------------%
% ------------------------- STRUCTURAL SIMULATION -----------------------------%
% -----------------------------------------------------------------------------%

% -------------------------- DYNAMIC SIMULATION -------------------------------%
%
% Dynamic analysis time step
DYN_TIMESTEP= 0.01
%
% Dynamic analysis total time
DYN_TIME= 3.01

% --------------------------- MATERIAL CONSTANTS ------------------------------%
%
% Value of the Elasticity modulus
ELASTICITY_MODULUS=1E4
%
% Value of the Poisson ratio
POISSON_RATIO=0.3
%
% Value of the material density
MATERIAL_DENSITY=0.01
%
% Elasticity formulation for 2D problems
FORMULATION_ELASTICITY_2D = PLANE_STRESS
%
% -------------------------- DYNAMIC SIMULATION -------------------------------%
%
% Dynamic structural analysis
DYNAMIC_ANALYSYS= YES
%
% Time discretization
TIME_DISCRE_FEA= NEWMARK_IMPLICIT
%
% Gradual Load
%SIGMOID_LOADING=NO
%
% Parameters of the numerical method
NEWMARK_ALPHA=0.3
NEWMARK_DELTA=0.55
%
% -------------------- BOUNDARY CONDITION DEFINITION --------------------------%
%
% Clamped boundary marker(s) (NONE = no marker)
% Format: ( clamped marker )
MARKER_CLAMPED = ( Wall_Clamped )
%
% Load boundary marker(s) (NONE = no marker)
% Format: ( load marker, force value normal to the surface, ... )
MARKER_NORMAL_LOAD= ( Wall_Upwind_S, 0, Wall_Downwind_S, 0, Wall_Upper_S, 0)

% -----------------------------------------------------------------------------%
% --------------------------- MESH PARAMETERS ---------------------------------%
% -----------------------------------------------------------------------------%
%
% Maximum number of iterations when solving the mesh update
DEFORM_LINEAR_ITER= 500
%
% Steps in the mesh updating (I think this is unnecessary, because the mesh is updated with linear elasticity...)
DEFORM_NONLINEAR_ITER= 1

% -----------------------------------------------------------------------------%
% ------------------------ INTERACTION PARAMETERS -----------------------------%
% -----------------------------------------------------------------------------%
%
% Number of fluid structure interaction iterations (1: staggered)
FSI_ITER= 1
%
% Time while the structure doesn't receive any load from the fluid
STATIC_TIME=0.5
%
% Ramp Load (the load from the fluid is transfered progresively)
RAMP_LOADING=YES
%
% Ramp Time
RAMP_TIME=1.0
%
% Marker interface
MARKER_FSI_INTERFACE = (Wall_Upwind_F, Wall_Upwind_S, Wall_Upper_F, Wall_Upper_S, Wall_Downwind_F, Wall_Downwind_S)
%
% Residual reduction in the structural part of FSI applications (order of magnitude with respect to the initial value)
RESIDUAL_REDUCTION_FSI= 3
%
% Min value of the residual in the structural part of FSI applications (log10 of the residual)
RESIDUAL_MINVAL_FSI= -4

% -----------------------------------------------------------------------------%
% -------------------------- COMMON PARAMETERS --------------------------------%
% -----------------------------------------------------------------------------%

% ------------- COMMON PARAMETERS DEFINING THE NUMERICAL METHOD ---------------%
%
% Numerical method for spatial gradients (GREEN_GAUSS, LEAST_SQUARES, 
%                                         WEIGHTED_LEAST_SQUARES)
NUM_METHOD_GRAD= WEIGHTED_LEAST_SQUARES
%
% Number of total iterations
EXT_ITER= 301
%
% ------------------------ LINEAR SOLVER DEFINITION ---------------------------%
%
% Linear solver for the implicit formulation (BCGSTAB, FGMRES)
LINEAR_SOLVER= FGMRES
%
% Preconditioner of the Krylov linear solver (JACOBI, LINELET, LU_SGS)
LINEAR_SOLVER_PREC= LU_SGS
%
% Preconditioner of the Krylov linear solver for the structural solver(JACOBI, LINELET, LU_SGS)
FSI_LINEAR_SOLVER_PREC_STRUC= LU_SGS
%
% Min error of the linear solver for the implicit formulation
LINEAR_SOLVER_ERROR= 1E-6
%
% Max number of iterations of the linear solver for the implicit formulation
LINEAR_SOLVER_ITER= 2
%
% Max number of iterations of the linear solver for the structural computations
FSI_LINEAR_SOLVER_ITER_STRUC = 1000

% -------------------------- MULTIGRID PARAMETERS -----------------------------%
%
% Multi-Grid Levels (0 = no multi-grid)
MGLEVEL= 0
%
% -------------------- FLOW NUMERICAL METHOD DEFINITION -----------------------%
%
% Convective numerical method (JST, LAX-FRIEDRICH, CUSP, ROE, AUSM, HLLC,
%                              TURKEL_PREC, MSW)
CONV_NUM_METHOD_FLOW= ROE
%
% Spatial numerical order integration (1ST_ORDER, 2ND_ORDER, 2ND_ORDER_LIMITER)
SPATIAL_ORDER_FLOW= 2ND_ORDER_LIMITER
%
% Coefficient for the limiter
LIMITER_COEFF= 10.0
%
% 1st, 2nd and 4th order artificial dissipation coefficients
AD_COEFF_FLOW= ( 0.15, 0.5, 0.02 )
%
% Time discretization (RUNGE-KUTTA_EXPLICIT, EULER_IMPLICIT, EULER_EXPLICIT)
TIME_DISCRE_FLOW= EULER_IMPLICIT

% --------------------------- CONVERGENCE PARAMETERS --------------------------%
%
% Convergence criteria (CAUCHY, RESIDUAL)
%
CONV_CRITERIA= RESIDUAL
%
% Residual reduction (order of magnitude with respect to the initial value)
RESIDUAL_REDUCTION= 3
%
% Min value of the residual (log10 of the residual)
RESIDUAL_MINVAL= -10
%
% Start convergence criteria at iteration number
STARTCONV_ITER= 10
%
% Number of elements to apply the criteria
CAUCHY_ELEMS= 100
%
% Epsilon to control the series convergence
CAUCHY_EPS= 1E-5
%
% Function to apply the criteria (LIFT, DRAG, NEARFIELD_PRESS, SENS_GEOMETRY, 
% 	      	    		 SENS_MACH, DELTA_LIFT, DELTA_DRAG)
CAUCHY_FUNC_FLOW= DRAG
CAUCHY_FUNC_LIN= DELTA_DRAG

% ------------------------- INPUT/OUTPUT INFORMATION --------------------------%
%
% Mesh input file
MESH_FILENAME= meshFSI_2D.su2
%
% Mesh input file format (SU2, CGNS NETCDF_ASCII)
MESH_FORMAT= SU2
%
% Output file format (PARAVIEW, TECPLOT)
OUTPUT_FORMAT= PARAVIEW
%
% Output file convergence history (w/o extension) 
CONV_FILENAME= history_2dfsi
%
% Output file convergence history for FSI  
CONV_FILENAME_FSI= historyFSI_2dfsi.csv
%
% Output file convergence history for FSI requested
WRITE_CONV_FILENAME_FSI = YES
%
% Output file restart flow
RESTART_FLOW_FILENAME= restart_flow.dat
%
% Output file flow (w/o extension) variables
VOLUME_FLOW_FILENAME= flow_2dfsi
%
% Output file flow (w/o extension) variables
SURFACE_FLOW_FILENAME= surf_flow_2dfsi
%
% Output file name (PARAVIEW, TECPLOT)
VOLUME_STRUCTURE_FILENAME= struc_2dfsi
%
% Output file name (PARAVIEW, TECPLOT)
SURFACE_STRUCTURE_FILENAME= surf_struc_2dfsi
%
% Writing solution file frequency
WRT_SOL_FREQ= 301
%
% Writing solution file frequency for physical time steps (dual time)
WRT_SOL_FREQ_DUALTIME= 301
%
% Writing convergence history frequency
WRT_CON_FREQ= 1
%
% Writing convergence history frequency (dual time, only written to screen)
WRT_CON_FREQ_DUALTIME= 5
