%%%%%%%%%%%%%%%%%%%%%%%%%%%%%%%%%%%%%%%%%%%%%%%%%%%%%%%%%%%%%%%%%%%%%%%%%%%%%%%%
% SU2 configuration file                                                       %
% Case description: Fluid Structure Interaction - Wall in channel              %
% Author: R.Sanchez                                                            %
% Institution: Imperial College London                                         %
% Date: 2016.02.01                                                             %
%%%%%%%%%%%%%%%%%%%%%%%%%%%%%%%%%%%%%%%%%%%%%%%%%%%%%%%%%%%%%%%%%%%%%%%%%%%%%%%%
PHYSICAL_PROBLEM= MULTIZONE

CONFIG_LIST = (configFlow.cfg, configFEA.cfg)

MARKER_ZONE_INTERFACE = (wallUpwF, wallUpwS, wallUpperF, wallUpperS, wallDownF, wallDownS)

MESH_FILENAME= meshFSI_2D.su2

TIME_DOMAIN = YES
TIME_ITER = 3
TIME_STEP = 0.005

RESTART_SOL= YES
RESTART_ITER = 2 

OUTER_ITER = 5

% Only required by the python scripts
MATH_PROBLEM = DIRECT
WRT_SOL_FREQ = 100
