%%%%%%%%%%%%%%%%%%%%%%%%%%%%%%%%%%%%%%%%%%%%%%%%%%%%%%%%%%%%%%%%%%%%%%%%%%%%%%%%
%                                                                              %
% SU2 configuration file                                                       %
% Case description: Deformation cylindrical                                    %
% Author: Francisco Palacios                                                   %
% Institution: Stanford University                                             %
% Date: 5/15/2013                                                              %
% File Version 8.0.0 "Harrier"                                                 %
%                                                                              %
%%%%%%%%%%%%%%%%%%%%%%%%%%%%%%%%%%%%%%%%%%%%%%%%%%%%%%%%%%%%%%%%%%%%%%%%%%%%%%%%

% -------------------- FREE-FORM DEFORMATION PARAMETERS -----------------------%
%
FFD_TOLERANCE= 1E-10
FFD_ITERATIONS= 1000
% The definition of the box is in cartesian coordinates, the first face
% (first 4 points) is extruded along the x axis to connect it with the
% second face. The x-y plane marks theta = 0 and x-z marks theta = pi/2.
% Angles above pi/2 (negative y coord) are subtracted 2*pi which allows
% creating a ~360 degree box as shown here.
FFD_DEFINITION= (CYLINDER_BOX,\
  0.6, -0.1, 1.5,\
  0.6, -0.1, 0.5,\
  0.6, 0.1, 0.5,\
  0.6, 0.1, 1.5,\
 -0.6, -0.1, 1.5,\
 -0.6, -0.1, 0.5,\
 -0.6, 0.1, 0.5,\
 -0.6, 0.1, 1.5)
% Abovew We start by changing Z, which changes the radius and thus the cylindrical
% "i" is the radius, then we change Y, which changes the angle and thus "j" is for
% theta. Finally we change X and thus "k" is for the axial coordinate.
FFD_DEGREE= (1, 9, 4)
FFD_CONTINUITY= 1ST_DERIVATIVE
FFD_COORD_SYSTEM= CYLINDRICAL
% This is the origin of axis, the direction is always x.
FFD_AXIS= (0.0, 0.0, 0.0)

% ----------------------- DESIGN VARIABLE PARAMETERS --------------------------%
%
DV_KIND= FFD_CONTROL_POINT
DV_MARKER= ( CYLINDER )
DV_PARAM= ( CYLINDER_BOX, 0, 3, 2, 1.0, 0.0, 0.0 )
DV_VALUE= 1.0

% ------------- DIRECT, ADJOINT, AND LINEARIZED PROBLEM DEFINITION ------------%
%
SOLVER= EULER
MATH_PROBLEM= DIRECT
RESTART_SOL= NO
SYSTEM_MEASUREMENTS= US

% -------------------- COMPRESSIBLE FREE-STREAM DEFINITION --------------------%
%
MACH_NUMBER= 0.8
AOA= 0.0
SIDESLIP_ANGLE= 0.0
FREESTREAM_TEMPERATURE= 518.67
FREESTREAM_PRESSURE= 2116.216

% ---------------------- REFERENCE VALUE DEFINITION ---------------------------%
%
REF_ORIGIN_MOMENT_X = 0.0
REF_ORIGIN_MOMENT_Y = 0.0
REF_ORIGIN_MOMENT_Z = 0.0
REF_LENGTH= 1.0
REF_AREA= 0
REF_DIMENSIONALIZATION= DIMENSIONAL

% -------------------- BOUNDARY CONDITION DEFINITION --------------------------%
%
MARKER_EULER= ( CYLINDER )
MARKER_FAR= ( FARFIELD )

% ------------------------ SURFACES IDENTIFICATION ----------------------------%
%
MARKER_PLOTTING = ( CYLINDER )
MARKER_MONITORING = ( CYLINDER )
MARKER_DESIGNING = ( CYLINDER )

% ------------- COMMON PARAMETERS DEFINING THE NUMERICAL METHOD ---------------%
%
NUM_METHOD_GRAD= GREEN_GAUSS
CFL_NUMBER= 1.0
CFL_ADAPT= NO
CFL_ADAPT_PARAM= ( 1.0, 1.0, 1.0, 10.0 )
OBJECTIVE_FUNCTION= DRAG

% ----------------------- SLOPE LIMITER DEFINITION ----------------------------%
%
ADJ_SHARP_LIMITER_COEFF= 3.0
VENKAT_LIMITER_COEFF= 0.003
LIMITER_ITER= 999999

% ------------------------ LINEAR SOLVER DEFINITION ---------------------------%
%
LINEAR_SOLVER= FGMRES
LINEAR_SOLVER_PREC= LU_SGS
LINEAR_SOLVER_ERROR= 1E-12
LINEAR_SOLVER_ITER= 2

% -------------------- FLOW NUMERICAL METHOD DEFINITION -----------------------%
%
CONV_NUM_METHOD_FLOW= ROE
MUSCL_FLOW= YES
SLOPE_LIMITER_FLOW= VENKATAKRISHNAN
TIME_DISCRE_FLOW= EULER_IMPLICIT

% ------------------------ GRID DEFORMATION PARAMETERS ------------------------%
%
DEFORM_LINEAR_SOLVER= FGMRES
DEFORM_LINEAR_SOLVER_ITER= 100
DEFORM_NONLINEAR_ITER= 1
DEFORM_CONSOLE_OUTPUT= YES
DEFORM_STIFFNESS_TYPE= INVERSE_VOLUME
DEFORM_LINEAR_SOLVER_ERROR= 1E-14

% --------------------------- CONVERGENCE PARAMETERS --------------------------%
%
ITER= 5
CONV_RESIDUAL_MINVAL= -12
CONV_STARTITER= 10

% ------------------------- INPUT/OUTPUT INFORMATION --------------------------%
%
MESH_FILENAME= cylindrical.su2
MESH_FORMAT= SU2
MESH_OUT_FILENAME= mesh_out.su2
SOLUTION_FILENAME= solution_flow.dat
SOLUTION_ADJ_FILENAME= solution_adj.dat
TABULAR_FORMAT= CSV
CONV_FILENAME= history
BREAKDOWN_FILENAME= forces_breakdown.dat
RESTART_FILENAME= restart_flow.dat
RESTART_ADJ_FILENAME= restart_adj.dat
VOLUME_FILENAME= flow
VOLUME_ADJ_FILENAME= adjoint
VALUE_OBJFUNC_FILENAME= of_eval.dat
GRAD_OBJFUNC_FILENAME= of_grad.dat
SURFACE_FILENAME= surface_flow
SURFACE_ADJ_FILENAME= surface_adjoint
OUTPUT_WRT_FREQ= 1
