%%%%%%%%%%%%%%%%%%%%%%%%%%%%%%%%%%%%%%%%%%%%%%%%%%%%%%%%%%%%%%%%%%%%%%%%%%%%%%%%
%                                                                              %
% Stanford University unstructured (SU2) configuration file                    %
% Case description: Steady incompressible subcritical flow in a channel        %
% Author: Francisco Palacios						                                       %
% Institution: Stanford University                                             %
% Date: 2012.03.14                                                             %
% File Version 1.0.12 January 5th, 2012                                        %
%                                                                              %
%%%%%%%%%%%%%%%%%%%%%%%%%%%%%%%%%%%%%%%%%%%%%%%%%%%%%%%%%%%%%%%%%%%%%%%%%%%%%%%%

% ------------- DIRECT, ADJOINT, AND LINEARIZED PROBLEM DEFINITION ------------%
%
% Physical governing equations (EULER, NAVIER_STOKES,
%                               FREE_SURFACE_EULER, FREE_SURFACE_NAVIER_STOKES, 
%                               PLASMA_EULER, PLASMA_NAVIER_STOKES)  
PHYSICAL_PROBLEM= FREE_SURFACE_EULER
%
% Incompressible flow using artificial compressibility (NO, YES)
INCOMPRESSIBLE_FORMULATION= YES
%
% Mathematical problem (DIRECT, ADJOINT, LINEARIZED)
MATH_PROBLEM= DIRECT
%
% Restart solution (NO, YES)
RESTART_SOL= NO

% -------------------- INCOMPRESSIBLE FREE-STREAM DEFINITION ------------------%
%
% Free-stream density (1.2886 Kg/m^3 (air), 998.2 Kg/m^3 (water))
FREESTREAM_DENSITY= 998.2
%
% Free-stream velocity (m/s)
FREESTREAM_VELOCITY= ( 0.951993365, 0.00, 0.00 )
%
% Free-stream viscosity (1.853E-5 Ns/m^2 (air), 0.798E-3 Ns/m^2 (water))
FREESTREAM_VISCOSITY= 0.798E-3

% -------------- COMPRESSIBLE AND INCOMPRESSIBLE FLUID CONSTANTS --------------%
%
% Value of the Bulk Modulus (1.01E5 N/m^2 (air), 2.2E9 N/m^2 (water),
%                            only for incompressible flows) 
BULK_MODULUS= 2.2E9
%
% Artifical compressibility factor (1.0 by default,
%                                   only for incompressible flows) 
ARTCOMP_FACTOR= 1.0

% ---------------------- REFERENCE VALUE DEFINITION ---------------------------%
%
% Conversion factor for converting the grid to meters
CONVERT_TO_METER= 1.0
%
% Reference element length for computing the slope limiter epsilon
REF_ELEM_LENGTH= 0.02
%
% Reference origin for moment computation
REF_ORIGIN_MOMENT= ( 0.25, 0.00, 0.00 )
%
% Reference length for pitching, rolling, and yawing non-dimensional moment
REF_LENGTH_MOMENT= 1.0
%
% Reference area for force coefficients (0 implies automatic calculation)
REF_AREA= 1.0

% ------------------------- UNSTEADY SIMULATION -------------------------------%
%
% Unsteady simulation (NO, TIME_STEPPING, DUAL_TIME_STEPPING-1ST_ORDER, 
%                      DUAL_TIME_STEPPING-2ND_ORDER)
UNSTEADY_SIMULATION= DUAL_TIME_STEPPING-2ND_ORDER
%
% Time Step for dual time stepping simulations
UNST_TIMESTEP= 1E-1
%
% Total Physical Time for dual time stepping simulations
UNST_TIME= 500.0
%
% Unsteady Courant-Friedrichs-Lewy condition of the finest grid
UNST_CFL_NUMBER= 0.0
%
% Number of internal iterations (dual time method)
UNST_INT_ITER= 50

% -------------------- BOUNDARY CONDITION DEFINITION --------------------------%
%
% Euler wall boundary marker(s) (NONE = no marker)
MARKER_EULER= ( bump )
%
% Symmetry boundary marker(s) (NONE = no marker)
MARKER_SYM= ( lower_left, bump, lower, lower_right, upper )
%
% Inlet boundary marker(s) (NONE = no marker)
MARKER_INLET= ( inlet, 0.0, 0.0, 0.0, 0.0, 0.0 )
%
% Outlet boundary marker(s) (NONE = no marker)
MARKER_OUTLET= ( outlet, 0.0 )
%
% Marker(s) of the surface to be plotted or designed
MARKER_PLOTTING= ( bump )
%
% Marker(s) of the surface where the functional (Cd, Cl, etc.) will be evaluated
MARKER_MONITORING= ( bump )

% ------------- COMMON PARAMETERS DEFINING THE NUMERICAL METHOD ---------------%
%
% Numerical method for spatial gradients (GREEN_GAUSS, LEAST_SQUARES, 
%                                         WEIGHTED_LEAST_SQUARES)
NUM_METHOD_GRAD= GREEN_GAUSS
%
% Courant-Friedrichs-Lewy condition of the finest grid
CFL_NUMBER= 10.0
%
% CFL ramp (factor, number of iterations, CFL limit)
CFL_RAMP= ( 1.0, 50, 1.0 )
%
% Number of total iterations
EXT_ITER= 10000

% ------------------------ LINEAR SOLVER DEFINITION ---------------------------%
%
% Linear solver for the implicit formulation (LU_SGS, SYM_GAUSS_SEIDEL, 
%                                             BCGSTAB, FLEXIBLE_GMRES)
LINEAR_SOLVER= LU_SGS
%
% Preconditioner of the Krylov linear solver (NONE, JACOBI, LINELET)
LINEAR_SOLVER_PREC= NONE
%
% Min error of the linear solver for the implicit formulation
LINEAR_SOLVER_ERROR= 1E-3
%
% Max number of iterations of the linear solver for the implicit formulation
LINEAR_SOLVER_ITER= 20

% -------------------------- MULTIGRID PARAMETERS -----------------------------%
%
% Multi-Grid Levels (0 = no multi-grid)
MGLEVEL= 2
%
% Multi-Grid Cycle (0 = V cycle, 1 = W Cycle)
MGCYCLE= 0
%
% CFL reduction factor on the coarse levels
MG_CFL_REDUCTION= 0.75
%
% Maximum number of children in the agglomeration stage
MAX_CHILDREN= 50
%
% Maximum length of an agglomerated element (relative to the domain)
MAX_DIMENSION= 0.5
%
% Multigrid pre-smoothing level
MG_PRE_SMOOTH= ( 1, 2, 2, 2 )
%
% Multigrid post-smoothing level
MG_POST_SMOOTH= ( 0, 0, 0, 0 )
%
% Jacobi implicit smoothing of the correction
MG_CORRECTION_SMOOTH= ( 0, 0, 0, 0 )
%
% Damping factor for the residual restriction
MG_DAMP_RESTRICTION= 1.0
%
% Damping factor for the correction prolongation
MG_DAMP_PROLONGATION= 1.0

% -------------------- FLOW NUMERICAL METHOD DEFINITION -----------------------%
%
% Convective numerical method (JST, LAX-FRIEDRICH, ROE-2ND_ORDER, 
%                              ROE-1ST_ORDER)
CONV_NUM_METHOD_FLOW= ROE-2ND_ORDER
%
% Slope limiter (NONE, VENKATAKRISHNAN, BARTH)
SLOPE_LIMITER_FLOW= VENKATAKRISHNAN
%
% Coefficient for the limiter (smooth regions)
LIMITER_COEFF= 0.01
%
% 1st, 2nd and 4th order artificial dissipation coefficients
AD_COEFF_FLOW= ( 0.15, 0.5, 0.04 )
%
% Viscous numerical method (AVG_GRAD, AVG_GRAD_CORRECTED, GALERKIN)
VISC_NUM_METHOD_FLOW= AVG_GRAD
%
% Source term numerical method (PIECEWISE_CONSTANT)
SOUR_NUM_METHOD_FLOW= PIECEWISE_CONSTANT
%
% Time discretization (RUNGE-KUTTA_EXPLICIT, EULER_IMPLICIT, EULER_EXPLICIT)
TIME_DISCRE_FLOW= EULER_IMPLICIT

% ------------------- FREE SURFACE NUMERICAL METHOD DEFINITION ----------------%
%
% Convective numerical method (SCALAR_UPWIND-1ST_ORDER, SCALAR_UPWIND-2ND_ORDER)
CONV_NUM_METHOD_LEVELSET= SCALAR_UPWIND-2ND_ORDER
%
% Source term numerical method (PIECEWISE_CONSTANT)
SOUR_NUM_METHOD_LEVELSET= PIECEWISE_CONSTANT
%
% Time discretization (RUNGE-KUTTA_EXPLICIT, EULER_IMPLICIT, EULER_EXPLICIT)
TIME_DISCRE_LEVELSET= EULER_IMPLICIT
%
% Reduction factor of the CFL coefficient in the level set problem
LEVELSET_CFL_REDUCTION= 0.01
%
% Ratio of density for two phase problems
RATIO_DENSITY= 0.00129
%
% Ratio of viscosity for two phase problems
RATIO_VISCOSITY= 0.001
%
% Location of the freesurface (y or z coordinate)
FREESURFACE_ZERO= 0.0
%
% Thickness of the interfase in a free surface problem
FREESURFACE_THICKNESS= 0.10
%
% Free surface damping coefficient
FREESURFACE_DAMPING_COEFF= 1.00
%
% Free surface damping length (times the baseline wave)
FREESURFACE_DAMPING_LENGTH= 6.0
%
% Location of the free surface inlet surface  (x or y coordinate)
FREESURFACE_INLET= -26.181818352
%
% Location of the free surface outlet surface  (x or y coordinate)
FREESURFACE_OUTLET= 25
%
% Free surface depth surface  (x or y coordinate)
FREESURFACE_DEPTH= 0.500

% ---------------- ADJOINT-FLOW NUMERICAL METHOD DEFINITION -------------------%
%
% Adjoint problem boundary condition (DRAG, LIFT, SIDEFORCE, PRESSURE, MOMENT_X,
%                                     MOMENT_Y, MOMENT_Z, EFFICIENCY, 
%                                     EQUIVALENT_AREA, NEARFIELD_PRESSURE,
%                                     FORCE_X, FORCE_Y, FORCE_Z, THRUST, 
%                                     TORQUE, FIGURE_OF_MERIT)
ADJ_OBJFUNC= LIFT
%
% Convective numerical method (JST, LAX-FRIEDRICH, ROE-1ST_ORDER, 
%                              ROE-2ND_ORDER)
CONV_NUM_METHOD_ADJ= ROE-2ND_ORDER
%
% 1st, 2nd, and 4th order artificial dissipation coefficients
AD_COEFF_ADJ= ( 0.15, 0.5, 0.02 )
%
% Reduction factor of the CFL coefficient in the adjoint problem
ADJ_CFL_REDUCTION= 0.25
%
% Viscous numerical method (AVG_GRAD, AVG_GRAD_CORRECTED, GALERKIN)
VISC_NUM_METHOD_ADJ= AVG_GRAD_CORRECTED
%
% Source term numerical method (PIECEWISE_CONSTANT)
SOUR_NUM_METHOD_ADJ= PIECEWISE_CONSTANT
%
% Time discretization (RUNGE-KUTTA_EXPLICIT, EULER_IMPLICIT)
TIME_DISCRE_ADJ= EULER_IMPLICIT

% --------------- ADJOINT-FREE SURFACE NUMERICAL METHOD DEFINITION ------------%
%
% Convective numerical method (ROE-1ST_ORDER, ROE-2ND_ORDER)
CONV_NUM_METHOD_ADJLEVELSET= ROE-2ND_ORDER
%
% Viscous numerical method (AVG_GRAD)
VISC_NUM_METHOD_ADJLEVELSET= NONE
%
% Time discretization (RUNGE-KUTTA_EXPLICIT, EULER_IMPLICIT, EULER_EXPLICIT)
TIME_DISCRE_ADJLEVELSET= EULER_IMPLICIT

% --------------------------- PARTITIONING STRATEGY ---------------------------%
%
% Number of partitions of the domain
NUMBER_PART= 0
%
% Write a paraview file for each partition (NO, YES)
VISUALIZE_PART= NO

% --------------------------- CONVERGENCE PARAMETERS --------------------------%
%
% Convergence criteria (CAUCHY, RESIDUAL)
%
CONV_CRITERIA= RESIDUAL
%
% Residual reduction (order of magnitude with respect to the initial value)
RESIDUAL_REDUCTION= 1.5
%
% Min value of the residual (log10 of the residual)
RESIDUAL_MINVAL= -6.0
%
% Start convergence criteria at iteration number
STARTCONV_ITER= 0
%
% Number of elements to apply the criteria
CAUCHY_ELEMS= 100
%
% Epsilon to control the series convergence
CAUCHY_EPS= 1E-6
%
% Function to apply the criteria (LIFT, DRAG, NEARFIELD_PRESS, SENS_GEOMETRY, 
% 	      	    		 SENS_MACH, DELTA_LIFT, DELTA_DRAG)
CAUCHY_FUNC_FLOW= DRAG
CAUCHY_FUNC_ADJ= SENS_GEOMETRY
%
% Epsilon for full multigrid method evaluation
FULLMG_CAUCHY_EPS= 1E-4

% ------------------------- INPUT/OUTPUT INFORMATION --------------------------%
%
% Mesh input file
MESH_FILENAME= Channel_H0500_Obstacle_Pool.su2
%
% Mesh input file format (SU2, CGNS NETCDF_ASCII)
MESH_FORMAT= SU2
%
% Mesh output file
MESH_OUT_FILENAME= mesh_out.su2
%
% Restart flow input file
SOLUTION_FLOW_FILENAME= solution_flow.dat
%
% Restart adjoint input file
SOLUTION_ADJ_FILENAME= solution_adj.dat
%
% Output file format (PARAVIEW, TECPLOT)
OUTPUT_FORMAT= TECPLOT
%
% Output file convergence history (w/o extension) 
CONV_FILENAME= history
%
% Output file restart flow
RESTART_FLOW_FILENAME= restart_flow.dat
%
% Output file restart adjoint
RESTART_ADJ_FILENAME= restart_adj.dat
%
% Output file flow (w/o extension) variables
VOLUME_FLOW_FILENAME= flow
%
% Output file adjoint (w/o extension) variables
VOLUME_ADJ_FILENAME= adjoint
%
% Output Objective function gradient (using continuous adjoint)
GRAD_OBJFUNC_FILENAME= of_grad.dat
%
% Output file surface flow coefficient (w/o extension)
SURFACE_FLOW_FILENAME= surface_flow
%
% Output file surface adjoint coefficient (w/o extension)
SURFACE_ADJ_FILENAME= surface_adjoint
%
% Writing solution file frequency
WRT_SOL_FREQ= 5
%
% Writing convergence history frequency
WRT_CON_FREQ= 1
%
% Write unsteady data adding headers and prefixes (NO, YES)
WRT_UNSTEADY= NO

% ------------------------ GRID DEFORMATION PARAMETERS ------------------------%
% Kind of deformation (NO_DEFORMATION, HICKS_HENNE, HICKS_HENNE_NORMAL, PARABOLIC,
%                      HICKS_HENNE_SHOCK, NACA_4DIGITS, DISPLACEMENT, ROTATION, 
%                      FFD_CONTROL_POINT, FFD_DIHEDRAL_ANGLE, FFD_TWIST_ANGLE, 
%                      FFD_ROTATION)
DV_KIND= HICKS_HENNE
%
% Marker of the surface in which we are going apply the shape deformation
DV_MARKER= ( bump )
%
% Parameters of the shape deformation 
% 	- HICKS_HENNE_FAMILY ( Lower(0)/Upper(1) side, x_Loc )
DV_PARAM= ( 2, 0.99 )
%
% Old value of the deformation for incremental deformations
DV_VALUE_OLD= 0.0
%
% Value of the shape deformation deformation
DV_VALUE_NEW= 0.01
%
% Grid deformation technique (SPRING, FEA)
GRID_DEFORM_METHOD= SPRING
%
% Numerical solver for the grid deformation (SYM_GAUSS_SEIDEL, CONJUGATE_GRADIENT)
GRID_DEFORM_SOLVER= CONJUGATE_GRADIENT
%
% Maximum error in the grid deformation
GRID_DEFORM_ERROR= 1E-14
%
% Visualize the deformation (NO, YES)
VISUALIZE_DEFORMATION= NO

% --------------------- OPTIMAL SHAPE DESIGN DEFINITION -----------------------%
%
% Objective function (DRAG, LIFT, SIDEFORCE, PRESSURE, MOMENT_X, MOMENT_Y, 
%                     MOMENT_Z, EFFICIENCY, EQUIVALENT_AREA, NEARFIELD_PRESSURE,
%                     FORCE_X, FORCE_Y, FORCE_Z, THRUST, TORQUE, FIGURE_OF_MERIT
%		      FREESURFACE)
OBJFUNC= FREESURFACE
%
% Scale objective funtion.
OBJFUNC_SCALE= 0.01 
%
% Inequality constraints list separated by comma (DRAG, LIFT, SIDEFORCE, PRESSURE, MOMENT_X, MOMENT_Y, 
%                     MOMENT_Z, EFFICIENCY, EQUIVALENT_AREA, NEARFIELD_PRESSURE,
%                     FORCE_X, FORCE_Y, FORCE_Z, THRUST, TORQUE, FIGURE_OF_MERIT
%		      FREESURFACE)
CONST_IEQ= NONE
%
% Scale inequality constraints (separated by comma)
CONST_IEQ_SCALE= 0.001
%
% Min value inequality constraints list (NONE, LESS, GREATER)
CONST_IEQ_SIGN= GREATER
%
% Max value inequality constraints list (separated by comma)
CONST_IEQ_VALUE= 0.328188
%
% Equality constraints list separated by comma (DRAG, LIFT, SIDEFORCE, PRESSURE, MOMENT_X, MOMENT_Y, 
%                     MOMENT_Z, EFFICIENCY, EQUIVALENT_AREA, NEARFIELD_PRESSURE,
%                     FORCE_X, FORCE_Y, FORCE_Z, THRUST, TORQUE, FIGURE_OF_MERIT
%		      FREESURFACE)
CONST_EQ= NONE
%
% Scale equality constraints (separated by comma)
CONST_EQ_SCALE= 0.0
%
% Value equality constraints list (separated by comma)
CONST_EQ_VALUE= 0.0
%
% List of design variables (Design variables are separated by semicolons)
% From 1 to 99, Geometrycal design variables.
%  - HICKS_HENNE ( 1, Scale | Mark. List | Lower(0)/Upper(1) side, x_Loc )
%  - NACA_4DIGITS ( 4, Scale | Mark. List |  1st digit, 2nd digit, 3rd and 4th digit )
%  - ROTATION ( 6, Scale | Mark. List | x_Axis, y_Axis, z_Axis, x_Turn, y_Turn, z_Turn )
% From 100 to 199, Flow solver design variables.
%  - MACH_NUMBER ( 101, Scale | Markers List )
%  - AOA ( 102, Scale | Markers List )
DEFINITION_DV= ( 1, 1.0 | bump | 2, 0.1 ); ( 1, 1.0 | bump | 2, 0.2 ); ( 1, 1.0 | bump | 2, 0.3 ); ( 1, 1.0 | bump | 2, 0.4 ); ( 1, 1.0 | bump | 2, 0.50 ); ( 1, 1.0 | bump | 2, 0.6 ); ( 1, 1.0 | bump | 2, 0.7 ); ( 1, 1.0 | bump | 2, 0.8 ); ( 1, 1.0 | bump | 2, 0.9 )
