%%%%%%%%%%%%%%%%%%%%%%%%%%%%%%%%%%%%%%%%%%%%%%%%%%%%%%%%%%%%%%%%%%%%%%%%%%%%%%%%
%                                                                              %
% SU2 configuration file                                                       %
% Case description: solid-to-solid and solid-to-fluid conjugate heat transfer  %
% with contact resistance.                                                     %
% Author: E.C.Bunschoten                                                       %
% Date: August 6, 2024                                                         %
% File Version 8.0.1 "Harrier"                                                 %
%                                                                              %
%%%%%%%%%%%%%%%%%%%%%%%%%%%%%%%%%%%%%%%%%%%%%%%%%%%%%%%%%%%%%%%%%%%%%%%%%%%%%%%%

% ------------- DIRECT, ADJOINT, AND LINEARIZED PROBLEM DEFINITION ------------%

SOLVER= INC_NAVIER_STOKES
INC_ENERGY_EQUATION= YES

% ------------------- INCOMPRESSIBLE FREE-STREAM DEFINITION -------------------%

FREESTREAM_TEMPERATURE= 300

INC_VELOCITY_INIT=(0.1, 0.0, 0.0)
FLUID_MODEL=INC_IDEAL_GAS

VISCOSITY_MODEL=CONSTANT_VISCOSITY
MU_CONSTANT=1e-5

REF_DIMENSIONALIZATION= DIMENSIONAL
INC_NONDIM= DIMENSIONAL

% -------------------- BOUNDARY CONDITION DEFINITION --------------------------%
%
INC_INLET_TYPE=VELOCITY_INLET
INC_OUTLET_TYPE=PRESSURE_OUTLET
MARKER_SYM= ( side_3 )
MARKER_INLET= ( inlet, 300, 0.1, 1.0, 0.0, 0.0 )
MARKER_OUTLET= ( outlet, 0.0)
MARKER_INTERNAL= (fluid)
% ------------- COMMON PARAMETERS DEFINING THE NUMERICAL METHOD ---------------%

CFL_NUMBER= 100

% -------------------- FLOW NUMERICAL METHOD DEFINITION -----------------------%
%
CONV_NUM_METHOD_FLOW= FDS
MUSCL_FLOW= YES

% --------------------------- CONVERGENCE PARAMETERS --------------------------%

CONV_RESIDUAL_MINVAL= -12

% ------------------------- INPUT/OUTPUT INFORMATION --------------------------%
%
MESH_FILENAME= fluid_mesh.su2
CONV_FILENAME= history_fluid_3
TABULAR_FORMAT= CSV