%%%%%%%%%%%%%%%%%%%%%%%%%%%%%%%%%%%%%%%%%%%%%%%%%%%%%%%%%%%%%%%%%%%%%%%%%%%%%%%%
%                                                                              %
% SU2 configuration file                                                       %
% Case description: solid-to-solid and solid-to-fluid conjugate heat transfer  %
% with contact resistance.                                                     %
% Author: E.C.Bunschoten                                                       %
% Date: August 6, 2024                                                         %
% File Version 8.0.1 "Harrier"                                                 %
%                                                                              %
%%%%%%%%%%%%%%%%%%%%%%%%%%%%%%%%%%%%%%%%%%%%%%%%%%%%%%%%%%%%%%%%%%%%%%%%%%%%%%%%

% ------------- DIRECT, ADJOINT, AND LINEARIZED PROBLEM DEFINITION ------------%
%
SOLVER= MULTIPHYSICS
MATH_PROBLEM= DIRECT
MULTIZONE_MESH=NO
CONFIG_LIST = (solid_1.cfg, solid_2.cfg, fluid.cfg)
MARKER_ZONE_INTERFACE= (cht_interface_1_2, cht_interface_2_1, \
                        cht_interface_1_3, cht_interface_3_1, \
                        cht_interface_2_3, cht_interface_3_2)
MARKER_CHT_INTERFACE= (cht_interface_1_2, cht_interface_2_1, \
                        cht_interface_1_3, cht_interface_3_1, \
                        cht_interface_2_3, cht_interface_3_2)
CHT_INTERFACE_CONTACT_RESISTANCE = (1e-5, 0, 0)

CHT_COUPLING_METHOD= DIRECT_TEMPERATURE_ROBIN_HEATFLUX
TIME_DOMAIN = NO
OUTER_ITER = 2000
WRT_ZONE_HIST=YES

OUTPUT_FILES=(RESTART, PARAVIEW_MULTIBLOCK)
SCREEN_OUTPUT=(RMS_PRESSURE[2],RMS_VELOCITY-X[2],RMS_TEMPERATURE[0],RMS_TEMPERATURE[1])