%%%%%%%%%%%%%%%%%%%%%%%%%%%%%%%%%%%%%%%%%%%%%%%%%%%%%%%%%%%%%%%%%%%%%%%%%%%%%%%%
%                                                                              %
% SU2 configuration file                                                       %
% Case description: solid-to-solid and solid-to-fluid conjugate heat transfer  %
% with contact resistance.                                                     %
% Author: E.C.Bunschoten                                                       %
% Date: August 6, 2024                                                         %
% File Version 8.0.1 "Harrier"                                                 %
%                                                                              %
%%%%%%%%%%%%%%%%%%%%%%%%%%%%%%%%%%%%%%%%%%%%%%%%%%%%%%%%%%%%%%%%%%%%%%%%%%%%%%%%

% ------------- DIRECT, ADJOINT, AND LINEARIZED PROBLEM DEFINITION ------------%
%
SOLVER= HEAT_EQUATION

% -------------------- BOUNDARY CONDITION DEFINITION --------------------------%
%
MARKER_ISOTHERMAL= ( isothermal_wall_2, 300.0 )
MARKER_SYM=(side_2)
MARKER_INTERNAL=(solid_2)

% ---------------- (SOLIDS) CONDUCTION CONDITION DEFINITION -------------------%

% We should keep the dimensionalization of the coupled flow solver
INC_NONDIM= DIMENSIONAL
FREESTREAM_TEMPERATURE= 300.0

MATERIAL_DENSITY= 8000
SPECIFIC_HEAT_CP= 4420
THERMAL_CONDUCTIVITY_CONSTANT= 61

% ------------- COMMON PARAMETERS DEFINING THE NUMERICAL METHOD ---------------%

CFL_NUMBER= 100.0

% ------------------------- INPUT/OUTPUT INFORMATION --------------------------%

MESH_FILENAME= solid_mesh_2.su2
TABULAR_FORMAT= CSV
CONV_FILENAME= history_solid_2

