%
% Inviscid vortex test case: Make sure to compile the executable with the
% flag -DINVISCID_VORTEX to set the appropriate initial conditions.
% These conditions can be found in the file solver_direct_mean_fem.cpp,
% function CFEM_DG_EulerSolver::SetInitialCondition.
%
% ------------- DIRECT, ADJOINT, AND LINEARIZED PROBLEM DEFINITION ------------%
%
SOLVER= FEM_EULER
MATH_PROBLEM= DIRECT
RESTART_SOL= NO

% ----------- COMPRESSIBLE AND INCOMPRESSIBLE FREE-STREAM DEFINITION ----------%
%
MACH_NUMBER= 0.5
AoA= 0.0
FREESTREAM_PRESSURE= 1.0
FREESTREAM_TEMPERATURE= 1.0

% -------------- COMPRESSIBLE AND INCOMPRESSIBLE FLUID CONSTANTS --------------%
%
GAMMA_VALUE= 1.4
GAS_CONSTANT= 1.0

% ---------------------- REFERENCE VALUE DEFINITION ---------------------------%
%
REF_ORIGIN_MOMENT_X = 0.00
REF_ORIGIN_MOMENT_Y = 0.00
REF_ORIGIN_MOMENT_Z = 0.00
REF_LENGTH_MOMENT= 1.0
REF_AREA= 1.0
REF_DIMENSIONALIZATION= DIMENSIONAL

% ------------------------- UNSTEADY SIMULATION -------------------------------%
%
TIME_DOMAIN=YES
TIME_MARCHING= TIME_STEPPING
TIME_STEP= 1.0e-3
MAX_TIME= 50.0
UNST_CFL_NUMBER= 0.0

% -------------------- BOUNDARY CONDITION DEFINITION --------------------------%
%
MARKER_PERIODIC= ( Bottom, Top, 0.0, 0.0, 0.0, 0.0, 0.0, 0.0, 0.0, 0.0, 2.0, Left, Right, 0.0, 0.0, 0.0, 0.0, 0.0, 0.0, 0.0, 2.0, 0.0, Back, Front, 0.0, 0.0, 0.0, 0.0, 0.0, 0.0, 2.0, 0.0, 0.0)

% ------------- COMMON PARAMETERS TO DEFINE THE NUMERICAL METHOD --------------%
%
CFL_NUMBER= 0.2
EXT_ITER= 5000
RK_ALPHA_COEFF= ( 0.666667, 0.666667, 1.0 )

% ------------------ FEM FLOW NUMERICAL METHOD DEFINITION ----------------------%
%
NUM_METHOD_FEM_FLOW= DG
RIEMANN_SOLVER_FEM= ROE
QUADRATURE_FACTOR_STRAIGHT_FEM = 2.0
QUADRATURE_FACTOR_CURVED_FEM = 2.0
TIME_DISCRE_FEM_FLOW= CLASSICAL_RK4_EXPLICIT
TIME_DISCRE_FLOW= CLASSICAL_RK4_EXPLICIT

% --------------------------- CONVERGENCE PARAMETERS --------------------------%
%
CONV_RESIDUAL_MINVAL= -15
CONV_STARTITER= 10
CONV_CAUCHY_ELEMS= 100
CONV_CAUCHY_EPS= 1E-6

% ------------------------- INPUT/OUTPUT INFORMATION --------------------------%
%
MESH_FILENAME= Tets_nPoly4.su2
MESH_FORMAT= SU2
MESH_OUT_FILENAME= mesh_out.su2
SOLUTION_FILENAME= SolInterpolFrom3rdOrder.dat
SOLUTION_ADJ_FILENAME= solution_adj.dat
TABULAR_FORMAT= CSV
CONV_FILENAME= history
RESTART_FILENAME= restart_flow.dat
RESTART_ADJ_FILENAME= restart_adj.dat
VOLUME_FILENAME= flow
VOLUME_ADJ_FILENAME= adjoint
GRAD_OBJFUNC_FILENAME= of_grad.dat
SURFACE_FILENAME= surface_flow
SURFACE_ADJ_FILENAME= surface_adjoint
OUTPUT_WRT_FREQ= 100
