%%%%%%%%%%%%%%%%%%%%%%%%%%%%%%%%%%%%%%%%%%%%%%%%%%%%%%%%%%%%%%%%%%%%%%%%%%%%%%%%%
%                                                                               %
% SU2 configuration file                                                        %
% Case description: Incompressible channel to test sliding interface            %
% Author: Ruben Sanchez                                                         %
% Institution: Chair for Scientific Computing, TU Kaiserslautern                %
% Date: January 28th, 2018                                                      %
% File Version 6.1.0 "Falcon"                                                   %
%                                                                               %
%%%%%%%%%%%%%%%%%%%%%%%%%%%%%%%%%%%%%%%%%%%%%%%%%%%%%%%%%%%%%%%%%%%%%%%%%%%%%%%%%

PHYSICAL_PROBLEM= MULTIZONE

CONFIG_LIST = (configOut.cfg, configCircle.cfg)

MARKER_ZONE_INTERFACE= (circleOut, circleIn)

MESH_FILENAME= meshCircle.su2

TIME_DOMAIN = NO

OUTER_ITER = 21
