%%%%%%%%%%%%%%%%%%%%%%%%%%%%%%%%%%%%%%%%%%%%%%%%%%%%%%%%%%%%%%%%%%%%%%%%%%%%%%%%
%                                                                              %
% SU2 configuration file                                                       %
% Case description: APU turbocharger 3D                                        %
% Author: S. Vitale                                                            %
% Institution: Delft University of Technology                                  %
% Date: Jun 28th, 2017                                                         %
% File Version 8.0.0 "Harrier"                                                 %
%                                                                              %
%%%%%%%%%%%%%%%%%%%%%%%%%%%%%%%%%%%%%%%%%%%%%%%%%%%%%%%%%%%%%%%%%%%%%%%%%%%%%%%%
%
MULTIZONE= YES
CONFIG_LIST=(stator.cfg, rotor_restart.cfg)
%
% ------------- DIRECT, ADJOINT, AND LINEARIZED PROBLEM DEFINITION ------------%
%
SOLVER= RANS
KIND_TURB_MODEL= SST
MATH_PROBLEM= DIRECT
RESTART_SOL= YES
DISCARD_INFILES= YES
%
% -------------------- COMPRESSIBLE FREE-STREAM DEFINITION --------------------%
%
MACH_NUMBER= 0.05
AOA= 0.0
FREESTREAM_PRESSURE= 400.0E+03
FREESTREAM_TEMPERATURE= 470.5
FREESTREAM_DENSITY= 1.7418
FREESTREAM_OPTION= TEMPERATURE_FS
FREESTREAM_TURBULENCEINTENSITY= 0.05
FREESTREAM_TURB2LAMVISCRATIO= 100.0
INIT_OPTION= TD_CONDITIONS
%
% ---------------------- REFERENCE VALUE DEFINITION ---------------------------%
%
REF_ORIGIN_MOMENT_X= 0.00
REF_ORIGIN_MOMENT_Y= 0.00
REF_ORIGIN_MOMENT_Z= 0.00
REF_LENGTH= 1.0
REF_AREA= 1.0
REF_DIMENSIONALIZATION= DIMENSIONAL
%
% ------------------------------ EQUATION OF STATE ----------------------------%
%
FLUID_MODEL= IDEAL_GAS
GAMMA_VALUE= 1.4
GAS_CONSTANT= 287.06
%
% --------------------------- VISCOSITY MODEL ---------------------------------%
%
VISCOSITY_MODEL= SUTHERLAND
MU_REF= 1.716E-5
MU_T_REF= 273.15
SUTHERLAND_CONSTANT= 110.4
%
% --------------------------- THERMAL CONDUCTIVITY MODEL ----------------------%
%
CONDUCTIVITY_MODEL= CONSTANT_PRANDTL
%
% -------------------- BOUNDARY CONDITION DEFINITION --------------------------%
%
MARKER_HEATFLUX= (BLADE1, 0.0, SHROUD1, 0.0,  HUB1, 0.0, BLADE2, 0.0, SHROUD2, 0.0, HUB2, 0.0)
MARKER_PERIODIC= (PER1, PER2, 0.0, 0.0, 0.0, 0.0, 0.0, 18.947368421, 0.0, 0.0, 0.0, PER3, PER4, 0.0, 0.0, 0.0, 0.0, 0.0, 22.5.0, 0.0, 0.0, 0.0)
%
%-------- INFLOW/OUTFLOW BOUNDARY CONDITION SPECIFIC FOR TURBOMACHINERY --------%
%
MARKER_TURBOMACHINERY= (INFLOW, OUTMIX, INMIX, OUTFLOW)
MARKER_ANALYZE= (OUTFLOW)
MARKER_MIXINGPLANE_INTERFACE= (OUTMIX, INMIX)
MARKER_GILES= (INFLOW, TOTAL_CONDITIONS_PT, 413.6E+03, 477.6, 1.0, 0.0, 0.0, 1.0, 0.0, OUTMIX, MIXING_OUT, 0.0, 0.0, 0.0, 0.0, 0.0, 0.3, 0.0, INMIX, MIXING_IN, 0.0, 0.0, 0.0, 0.0, 0.0, 0.3, 0.0, OUTFLOW, STATIC_PRESSURE_1D, 67.46E+03, 0.0, 0.0, 0.0, 0.0 , 1.0, 0.0)
GILES_EXTRA_RELAXFACTOR= (0.05, 0.05)
SPATIAL_FOURIER= NO
%
%---------------------------- TURBOMACHINERY SIMULATION -----------------------------%
%
TURBOMACHINERY_KIND= CENTRIPETAL CENTRIPETAL_AXIAL
MIXINGPLANE_INTERFACE_KIND= LINEAR_INTERPOLATION
TURBULENT_MIXINGPLANE= YES
RAMP_OUTLET_PRESSURE= NO
RAMP_OUTLET_PRESSURE_COEFF= (400000.0, 10.0, 500)
AVERAGE_PROCESS_KIND= MIXEDOUT
PERFORMANCE_AVERAGE_PROCESS_KIND= MIXEDOUT
MIXEDOUT_COEFF= (1.0, 1.0E-05, 15)
AVERAGE_MACH_LIMIT= 0.05
%
% ------------------------ SURFACES IDENTIFICATION ----------------------------%
%
MARKER_PLOTTING= (BLADE1, BLADE2)
%
% ------------- COMMON PARAMETERS DEFINING THE NUMERICAL METHOD ---------------%
%
NUM_METHOD_GRAD= WEIGHTED_LEAST_SQUARES
CFL_NUMBER= 5.0
CFL_ADAPT= YES
CFL_ADAPT_PARAM= ( 0.1, 1.2, 5.0, 30.0)
%
% ------------------------ LINEAR SOLVER DEFINITION ---------------------------%
%
LINEAR_SOLVER= FGMRES
LINEAR_SOLVER_PREC= LU_SGS
LINEAR_SOLVER_ERROR= 1E-4
LINEAR_SOLVER_ITER= 10
%
% ----------- NOT WORKING WITH PERIODIC BOUNDARY CONDITIONS !!!!! -------------%
%
%
% ----------------------- SLOPE LIMITER DEFINITION ----------------------------%
%
VENKAT_LIMITER_COEFF= 0.01
LIMITER_ITER= 999999
%
% -------------------- FLOW NUMERICAL METHOD DEFINITION -----------------------%
%
CONV_NUM_METHOD_FLOW= ROE
MUSCL_FLOW= NO
SLOPE_LIMITER_FLOW= VENKATAKRISHNAN
JST_SENSOR_COEFF= ( 0.5, 0.02 )
TIME_DISCRE_FLOW= EULER_IMPLICIT
ENTROPY_FIX_COEFF= 0.001
%
% -------------------- TURBULENT NUMERICAL METHOD DEFINITION ------------------%
%
CONV_NUM_METHOD_TURB= SCALAR_UPWIND
MUSCL_TURB= NO
SLOPE_LIMITER_TURB= VENKATAKRISHNAN
TIME_DISCRE_TURB= EULER_IMPLICIT
CFL_REDUCTION_TURB= 0.5
%
% --------------------------- CONVERGENCE PARAMETERS --------------------------%
%
OUTER_ITER= 10
CONV_RESIDUAL_MINVAL= -14
CONV_STARTITER= 10
CONV_CAUCHY_ELEMS= 100
CONV_CAUCHY_EPS= 1E-6
%
% ------------------------- INPUT/OUTPUT INFORMATION --------------------------%
%
SCREEN_OUTPUT= OUTER_ITER, AVG_BGS_RES[0], AVG_BGS_RES[1], RMS_DENSITY[0], RMS_ENERGY[0], RMS_DENSITY[1], RMS_ENERGY[1], SURFACE_TOTAL_PRESSURE[1]
MESH_FILENAME= mesh_jones_turbine.su2
MESH_FORMAT= SU2
MESH_OUT_FILENAME= meshout.su2
SOLUTION_FILENAME= solution_flow.dat
SOLUTION_ADJ_FILENAME= solution_adj.dat
TABULAR_FORMAT= CSV
CONV_FILENAME= history
RESTART_FILENAME= restart_flow.dat
RESTART_ADJ_FILENAME= restart_adj.dat
VOLUME_FILENAME= flow
VOLUME_ADJ_FILENAME= adjoint
GRAD_OBJFUNC_FILENAME= of_grad.dat
SURFACE_FILENAME= surface_flow
SURFACE_ADJ_FILENAME= surface_adjoint
OUTPUT_WRT_FREQ= 100
