%%%%%%%%%%%%%%%%%%%%%%%%%%%%%%%%%%%%%%%%%%%%%%%%%%%%%%%%%%%%%%%%%%%%%%%%%%
% SU2 configuration file                                                 %
% Case description: 2D airfoil FSI with radial basis function interp.    %
% Institution: Imperial College London                                   %
% File Version 6.2.0 "Falcon"                                            %
%%%%%%%%%%%%%%%%%%%%%%%%%%%%%%%%%%%%%%%%%%%%%%%%%%%%%%%%%%%%%%%%%%%%%%%%%%
%
% Interface options ---------------------------------------------------- %

KIND_INTERPOLATION = RADIAL_BASIS_FUNCTION
CONSERVATIVE_INTERPOLATION = NO
KIND_RADIAL_BASIS_FUNCTION = WENDLAND_C2
RADIAL_BASIS_FUNCTION_PARAMETER = 0.015
RADIAL_BASIS_FUNCTION_POLYNOMIAL_TERM = YES

INNER_ITER = 1
WRT_BINARY_RESTART=NO
READ_BINARY_RESTART=NO
%
% Physics -------------------------------------------------------------- %
PHYSICAL_PROBLEM= ELASTICITY
MATH_PROBLEM= DIRECT
%
% Solid properties ----------------------------------------------------- %
MATERIAL_MODEL= NEO_HOOKEAN
ELASTICITY_MODULUS= 7E8
POISSON_RATIO= 0.35
MATERIAL_DENSITY= 2700.0
%
% Boundary conditions -------------------------------------------------- %
MARKER_PRESSURE= ( pressure_side_s,0.0, suction_side_s,0.0 )
MARKER_CLAMPED = ( clamped )
%
% Common numerics settings --------------------------------------------- %
REF_DIMENSIONALIZATION= DIMENSIONAL
NUM_METHOD_GRAD= GREEN_GAUSS
CFL_NUMBER= 10.0
%
% Flow numerics -------------------------------------------------------- %
CONV_NUM_METHOD_FLOW= JST
JST_SENSOR_COEFF= ( 0.5, 0.02 )
TIME_DISCRE_FLOW= EULER_IMPLICIT
%
% Solid numerics ------------------------------------------------------- %
GEOMETRIC_CONDITIONS= LARGE_DEFORMATIONS
FORMULATION_ELASTICITY_2D= PLANE_STRESS
%
% Linear solvers ------------------------------------------------------- %
LINEAR_SOLVER= RESTARTED_FGMRES
LINEAR_SOLVER_PREC= ILU
LINEAR_SOLVER_ERROR= 1E-6
LINEAR_SOLVER_ITER= 1000
LINEAR_SOLVER_RESTART_FREQUENCY= 100
%
% Convergence criteria ------------------------------------------------- %
EXT_ITER= 1
% interaction
FSI_ITER= 1
% if running from scratch this helps a bunch
%RAMP_LOADING= YES
%RAMP_FSI_ITER= 5
BGS_RELAXATION= FIXED_PARAMETER
STAT_RELAX_PARAMETER= 0.7
RESIDUAL_REDUCTION_FSI= 8
RESIDUAL_MINVAL_FSI= -8
% solid
NONLINEAR_FEM_INT_ITER= 30
RESIDUAL_FEM_UTOL= -6.0
RESIDUAL_FEM_RTOL= -6.0
RESIDUAL_FEM_ETOL= -6.0
%
% In\Out --------------------------------------------------------------- %
MESH_FILENAME= meshFEA.su2
MESH_FORMAT= SU2
MULTIZONE_MESH = NO
%
RESTART_SOL= YES
SOLUTION_FLOW_FILENAME= solution_fluid.dat
SOLUTION_STRUCTURE_FILENAME= solution_solid.dat
WRT_SOL_FREQ= 999999
RESTART_FLOW_FILENAME= restart_fluid.dat
RESTART_STRUCTURE_FILENAME= restart_solid.dat
%
OUTPUT_FORMAT= PARAVIEW
VOLUME_FLOW_FILENAME= fluid
SURFACE_FLOW_FILENAME= surface_fluid
VOLUME_STRUCTURE_FILENAME= solid
%
WRT_CON_FREQ= 10
CONV_FILENAME= history

