%%%%%%%%%%%%%%%%%%%%%%%%%%%%%%%%%%%%%%%%%%%%%%%%%%%%%%%%%%%%%%%%%%%%%%%%%%
% SU2 configuration file                                                 %
% Case description: 2D airfoil FSI with radial basis function interp.    %
% Institution: Imperial College London                                   %
% File Version 6.2.0 "Falcon"                                            %
%%%%%%%%%%%%%%%%%%%%%%%%%%%%%%%%%%%%%%%%%%%%%%%%%%%%%%%%%%%%%%%%%%%%%%%%%%
%
% Interface options ---------------------------------------------------- %

KIND_INTERPOLATION = RADIAL_BASIS_FUNCTION
CONSERVATIVE_INTERPOLATION = NO
KIND_RADIAL_BASIS_FUNCTION = WENDLAND_C2
RADIAL_BASIS_FUNCTION_PARAMETER = 0.015
RADIAL_BASIS_FUNCTION_POLYNOMIAL_TERM = YES

WRT_BINARY_RESTART=NO
READ_BINARY_RESTART=NO
%
% Physics -------------------------------------------------------------- %
PHYSICAL_PROBLEM= EULER
MATH_PROBLEM= DIRECT
KIND_TURB_MODEL= NONE

GRID_MOVEMENT = YES
GRID_MOVEMENT_KIND = FLUID_STRUCTURE_STATIC
MULTIZONE_MESH = NO
INNER_ITER= 60
%
% Compressible free-stream conditions ---------------------------------- %
MACH_NUMBER= 0.7
AOA= 2.5
INIT_OPTION= TD_CONDITIONS
FREESTREAM_OPTION= TEMPERATURE_FS
FREESTREAM_PRESSURE= 101325.0
FREESTREAM_TEMPERATURE= 273.15
REYNOLDS_LENGTH= 0.5
%
% Fluid properties ----------------------------------------------------- %
FLUID_MODEL= IDEAL_GAS
GAMMA_VALUE= 1.4
GAS_CONSTANT= 287.87
%
% Boundary conditions -------------------------------------------------- %
% fluid
MARKER_FAR= ( farfield )
MARKER_EULER= ( leading_edge, 0.0, pressure_side, 0.0, suction_side, 0.0)
% solid
MARKER_CLAMPED = ( clamped )
%
% Post processing and monitoring --------------------------------------- %
REF_ORIGIN_MOMENT_X= -0.125
REF_ORIGIN_MOMENT_Y= 0.00
REF_ORIGIN_MOMENT_Z= 0.00
REF_LENGTH= 0.5
REF_AREA= 0.5
MARKER_PLOTTING= ( leading_edge, pressure_side, suction_side )
MARKER_MONITORING= ( leading_edge, pressure_side, suction_side )
MARKER_DESIGNING= ( leading_edge, pressure_side, suction_side )
%
% Common numerics settings --------------------------------------------- %
REF_DIMENSIONALIZATION= DIMENSIONAL
NUM_METHOD_GRAD= GREEN_GAUSS
CFL_NUMBER= 10.0
%
% Flow numerics -------------------------------------------------------- %
CONV_NUM_METHOD_FLOW= JST
JST_SENSOR_COEFF= ( 0.5, 0.02 )
TIME_DISCRE_FLOW= EULER_IMPLICIT
%
% Linear solvers ------------------------------------------------------- %
LINEAR_SOLVER= BCGSTAB
LINEAR_SOLVER_PREC= ILU
LINEAR_SOLVER_ERROR= 1E-2
LINEAR_SOLVER_ITER= 100
% Multigrid
MGLEVEL= 1
MGCYCLE= V_CYCLE
MG_PRE_SMOOTH= ( 1, 2, 3, 3 )
MG_POST_SMOOTH= ( 0, 0, 0, 0 )
MG_CORRECTION_SMOOTH= ( 0, 0, 0, 0 )
MG_DAMP_RESTRICTION= 0.75
MG_DAMP_PROLONGATION= 0.75
%
DEFORM_LINEAR_SOLVER= CONJUGATE_GRADIENT
DEFORM_LINEAR_SOLVER_PREC= ILU
DEFORM_LINEAR_SOLVER_ERROR= 1e-6
DEFORM_LINEAR_SOLVER_ITER= 1000
%
% Convergence criteria ------------------------------------------------- %
EXT_ITER= 1
% interaction
FSI_ITER= 1
% if running from scratch this helps a bunch
%RAMP_LOADING= YES
%RAMP_FSI_ITER= 5
BGS_RELAXATION= FIXED_PARAMETER
STAT_RELAX_PARAMETER= 0.7
RESIDUAL_REDUCTION_FSI= 8
RESIDUAL_MINVAL_FSI= -8
% fluid
UNST_INT_ITER= 60
CONV_CRITERIA= RESIDUAL
STARTCONV_ITER= 0
RESIDUAL_REDUCTION= 9
RESIDUAL_MINVAL= -9
% grid deformation
DEFORM_NONLINEAR_ITER= 1
DEFORM_STIFFNESS_TYPE= INVERSE_VOLUME
%
% In\Out --------------------------------------------------------------- %
MESH_FILENAME= meshFlow.su2
MESH_FORMAT= SU2
%
RESTART_SOL= YES
SOLUTION_FLOW_FILENAME= solution_fluid.dat
SOLUTION_STRUCTURE_FILENAME= solution_solid.dat
WRT_SOL_FREQ= 999999
RESTART_FLOW_FILENAME= restart_fluid.dat
RESTART_STRUCTURE_FILENAME= restart_solid.dat
%
OUTPUT_FORMAT= PARAVIEW
VOLUME_FLOW_FILENAME= fluid
SURFACE_FLOW_FILENAME= surface_fluid
VOLUME_STRUCTURE_FILENAME= solid
%
WRT_CON_FREQ= 10
CONV_FILENAME= history

