%%%%%%%%%%%%%%%%%%%%%%%%%%%%%%%%%%%%%%%%%%%%%%%%%%%%%%%%%%%%%%%%%%%%%%%%%%
% SU2 configuration file                                                 %
% Case description: 2D airfoil FSI with radial basis function interp.    %
% Institution: Imperial College London                                   %
% File Version 8.0.0 "Harrier"                                           %
%%%%%%%%%%%%%%%%%%%%%%%%%%%%%%%%%%%%%%%%%%%%%%%%%%%%%%%%%%%%%%%%%%%%%%%%%%
%
% Interface options ---------------------------------------------------- %
% See "configFlow.cfg" for explanation of these options.
KIND_INTERPOLATION = RADIAL_BASIS_FUNCTION
CONSERVATIVE_INTERPOLATION = YES
KIND_RADIAL_BASIS_FUNCTION = WENDLAND_C2
RADIAL_BASIS_FUNCTION_PARAMETER = 0.015
RADIAL_BASIS_FUNCTION_POLYNOMIAL_TERM = YES
RADIAL_BASIS_FUNCTION_PRUNE_TOLERANCE = 0
%
% Physics -------------------------------------------------------------- %
SOLVER= ELASTICITY
MATH_PROBLEM= DIRECT
%
% Solid properties ----------------------------------------------------- %
MATERIAL_MODEL= NEO_HOOKEAN
ELASTICITY_MODULUS= 7E8
POISSON_RATIO= 0.35
MATERIAL_DENSITY= 2700.0
%
% Boundary conditions -------------------------------------------------- %
MARKER_FLUID_LOAD= ( pressure_side_s, suction_side_s, clamped )
MARKER_CLAMPED= ( clamped )
%
% Numerics ------------------------------------------------------------- %
GEOMETRIC_CONDITIONS= LARGE_DEFORMATIONS
FORMULATION_ELASTICITY_2D= PLANE_STRESS
%
% Linear solvers ------------------------------------------------------- %
LINEAR_SOLVER= RESTARTED_FGMRES
LINEAR_SOLVER_PREC= ILU
LINEAR_SOLVER_ERROR= 1E-6
LINEAR_SOLVER_ITER= 1000
LINEAR_SOLVER_RESTART_FREQUENCY= 100
%
% Fluid-structure interaction ------------------------------------------ %
% when running from scratch RAMP_LOADING helps (don't do it with restart)
%RAMP_LOADING= YES
%RAMP_FSI_ITER= 5
BGS_RELAXATION= FIXED_PARAMETER
STAT_RELAX_PARAMETER= 0.7
%
% Convergence criteria ------------------------------------------------- %
INNER_ITER= 30
CONV_FIELD= RMS_UTOL, RMS_ETOL
CONV_STARTITER= 0
CONV_RESIDUAL_MINVAL= -5
%
% In\Out --------------------------------------------------------------- %
MESH_FILENAME= meshFEA.su2
MESH_FORMAT= SU2
MULTIZONE_MESH= NO
% inputs
RESTART_SOL= YES
SOLUTION_FILENAME= solution_solid.dat
% outputs
OUTPUT_WRT_FREQ= 9999
RESTART_FILENAME= restart_solid.dat
VOLUME_FILENAME= solid
% history and screen
SCREEN_WRT_FREQ_INNER= 10
CONV_FILENAME= history
