%%%%%%%%%%%%%%%%%%%%%%%%%%%%%%%%%%%%%%%%%%%%%%%%%%%%%%%%%%%%%%%%%%%%%%%%%%%%%%%%
% SU2 configuration file                                                       %
% Case description: 2D airfoil FSI with radial basis function interp.          %
% Institution: Imperial College London                                         %
% Date: 2015.08.12                                                             %
% File Version 8.0.0 "Harrier"                                                 %
%%%%%%%%%%%%%%%%%%%%%%%%%%%%%%%%%%%%%%%%%%%%%%%%%%%%%%%%%%%%%%%%%%%%%%%%%%%%%%%%

SOLVER = MULTIPHYSICS

CONFIG_LIST = (configFlow.cfg, configFEA.cfg)

MULTIZONE_SOLVER = BLOCK_GAUSS_SEIDEL

MARKER_ZONE_INTERFACE = (pressure_side,pressure_side_s, suction_side,suction_side_s)

MESH_FILENAME = mesh.su2

TIME_DOMAIN = NO

OUTER_ITER = 50

% enable this option to see convergence output for individual zones
WRT_ZONE_CONV = NO
