%%%%%%%%%%%%%%%%%%%%%%%%%%%%%%%%%%%%%%%%%%%%%%%%%%%%%%%%%%%%%%%%%%%%%%%%%%
% SU2 configuration file                                                 %
% Case description: 2D airfoil FSI with radial basis function interp.    %
% Institution: Imperial College London                                   %
% File Version 8.0.0 "Harrier"                                           %
%%%%%%%%%%%%%%%%%%%%%%%%%%%%%%%%%%%%%%%%%%%%%%%%%%%%%%%%%%%%%%%%%%%%%%%%%%
%
% Interface options ---------------------------------------------------- %
% This is one of the ways of interpolating between non-matching meshes,
% its attractiveness comes from removing the need to map nodes between
% sides, the downside is that dense matrix algebra is involved, so w.r.t.
% the number of interface nodes the approach is quadratic in memory and
% cubic in computation. To manage this the interface needs to be split in
% patches (by the user, this example has 2 patches), compiling with BLAS
% and LAPACK is recommended.
KIND_INTERPOLATION = RADIAL_BASIS_FUNCTION
% Conserve virtual work by using the transpose of the displacement
% interpolation matrix when transferring fluid loads, this is usually the
% best option, if the range of cell sizes on the interface is large (2-3
% orders) and you have issues, break up the interface or use "NO" for
% consistent interpolation.
CONSERVATIVE_INTERPOLATION = YES
% Wendland is usually the best option due to sparser and better
% conditioned interpolation kernel, other options:
% INV_MULTI_QUADRIC;  GAUSSIAN;  THIN_PLATE_SPLINE;  MULTI_QUADRIC
KIND_RADIAL_BASIS_FUNCTION = WENDLAND_C2
% The radius in meters, 2 times the largest cell size on the interface is
% a good compromise between accuracy and condition number of the kernel.
RADIAL_BASIS_FUNCTION_PARAMETER = 0.015
% Polynomial terms to recover rigid body motion, this requires slightly
% more computation and reduces the sparsity of the interpolation matrix.
RADIAL_BASIS_FUNCTION_POLYNOMIAL_TERM = YES
% The number of donor points per target point is reduced by prunning away
% small interpolation coefficients (making the interp. matrix sparse).
% This tolerance is relative to the maximum absolute coefficient.
RADIAL_BASIS_FUNCTION_PRUNE_TOLERANCE = 0
%
% Physics -------------------------------------------------------------- %
SOLVER= EULER
MATH_PROBLEM= DIRECT
KIND_TURB_MODEL= NONE
%
% Compressible free-stream conditions ---------------------------------- %
MACH_NUMBER= 0.7
AOA= 2.5
INIT_OPTION= TD_CONDITIONS
FREESTREAM_OPTION= TEMPERATURE_FS
FREESTREAM_PRESSURE= 101325.0
FREESTREAM_TEMPERATURE= 273.15
REYNOLDS_LENGTH= 0.5
%
% Fluid properties ----------------------------------------------------- %
FLUID_MODEL= IDEAL_GAS
GAMMA_VALUE= 1.4
GAS_CONSTANT= 287.87
%
% Boundary conditions -------------------------------------------------- %
MARKER_FAR= ( farfield )
MARKER_EULER= ( leading_edge, pressure_side, suction_side )
%
% Post processing and monitoring --------------------------------------- %
REF_ORIGIN_MOMENT_X= -0.125
REF_ORIGIN_MOMENT_Y= 0.00
REF_ORIGIN_MOMENT_Z= 0.00
REF_LENGTH= 0.5
REF_AREA= 0.5
MARKER_PLOTTING= ( leading_edge, pressure_side, suction_side )
MARKER_MONITORING= ( leading_edge, pressure_side, suction_side )
MARKER_DESIGNING= ( leading_edge, pressure_side, suction_side )
%
% Flow numerics -------------------------------------------------------- %
CONV_NUM_METHOD_FLOW= JST
JST_SENSOR_COEFF= ( 0.5, 0.02 )
TIME_DISCRE_FLOW= EULER_IMPLICIT
REF_DIMENSIONALIZATION= DIMENSIONAL
NUM_METHOD_GRAD= GREEN_GAUSS
CFL_NUMBER= 10.0
%
% Multigrid ------------------------------------------------------------ %
MGLEVEL= 1
MGCYCLE= V_CYCLE
MG_PRE_SMOOTH= ( 1, 2, 3, 3 )
MG_POST_SMOOTH= ( 0, 0, 0, 0 )
MG_CORRECTION_SMOOTH= ( 0, 0, 0, 0 )
MG_DAMP_RESTRICTION= 0.75
MG_DAMP_PROLONGATION= 0.75
%
% Grid deformation ----------------------------------------------------- %
DEFORM_MESH= YES
MARKER_DEFORM_MESH= ( leading_edge, pressure_side, suction_side )
DEFORM_NONLINEAR_ITER= 1
DEFORM_STIFFNESS_TYPE= INVERSE_VOLUME
DEFORM_POISSONS_RATIO= 1e6
DEFORM_CONSOLE_OUTPUT= NO
%
% Linear solvers ------------------------------------------------------- %
LINEAR_SOLVER= BCGSTAB
LINEAR_SOLVER_PREC= ILU
LINEAR_SOLVER_ERROR= 1E-2
LINEAR_SOLVER_ITER= 100
%
DEFORM_LINEAR_SOLVER= CONJUGATE_GRADIENT
DEFORM_LINEAR_SOLVER_PREC= ILU
DEFORM_LINEAR_SOLVER_ERROR= 1e-6
DEFORM_LINEAR_SOLVER_ITER= 1000
%
% Convergence criteria ------------------------------------------------- %
INNER_ITER= 60
CONV_STARTITER= 0
CONV_RESIDUAL_MINVAL= -9
%
% In\Out --------------------------------------------------------------- %
MESH_FILENAME= meshFlow.su2
MESH_FORMAT= SU2
MULTIZONE_MESH= NO
% inputs
RESTART_SOL= YES
SOLUTION_FILENAME= solution_fluid.dat
% outputs
OUTPUT_WRT_FREQ= 9999
RESTART_FILENAME= restart_fluid.dat
VOLUME_FILENAME= fluid
SURFACE_FILENAME= surface_fluid
% history and screen
SCREEN_WRT_FREQ_INNER= 10
CONV_FILENAME= history
