%%%%%%%%%%%%%%%%%%%%%%%%%%%%%%%%%%%%%%%%%%%%%%%%%%%%%%%%%%%%%%%%%%%%%%%%%%%%%%%%
%                                                                              %
% SU2 configuration file                                                       %
% Case description: 2D airfoil FSI with radial basis function interp.          %
% Institution: Imperial College London                                         %
% Date: 2015.08.12                                                             %
% File Version 3.9 "eagle"                                                     %
%                                                                              %
%%%%%%%%%%%%%%%%%%%%%%%%%%%%%%%%%%%%%%%%%%%%%%%%%%%%%%%%%%%%%%%%%%%%%%%%%%%%%%%%

PHYSICAL_PROBLEM= MULTIZONE

CONFIG_LIST = (configFlow.cfg, configFEA.cfg)

MULTIZONE_SOLVER = BLOCK_GAUSS_SEIDEL

MARKER_ZONE_INTERFACE= (pressure_side,pressure_side_s, suction_side,suction_side_s)

MESH_FILENAME= mesh.su2

TIME_DOMAIN = NO

OUTER_ITER = 1

KIND_INTERPOLATION = RADIAL_BASIS_FUNCTION
CONSERVATIVE_INTERPOLATION = YES
KIND_RADIAL_BASIS_FUNCTION = WENDLAND_C2
RADIAL_BASIS_FUNCTION_PARAMETER = 0.015
RADIAL_BASIS_FUNCTION_POLYNOMIAL_TERM = YES
