%%%%%%%%%%%%%%%%%%%%%%%%%%%%%%%%%%%%%%%%%%%%%%%%%%%%%%%%%%%%%%%%%%%%%%%%%%
% SU2 configuration file                                                 %
% Case description: 2D airfoil FSI with radial basis function interp.    %
% Institution: Imperial College London                                   %
% File Version 6.2.0 "Falcon"                                            %
%%%%%%%%%%%%%%%%%%%%%%%%%%%%%%%%%%%%%%%%%%%%%%%%%%%%%%%%%%%%%%%%%%%%%%%%%%
%
% Interface options ---------------------------------------------------- %

% This is one of the ways of interpolating between non-matching meshes,
% its attractiveness comes from removing the need to map nodes between
% sides, the downside is that dense matrix algebra is involved, so w.r.t.
% the number of interface nodes the approach is quadratic in memory and
% cubic in computation. To manage this the interface needs to be split in
% patches (by the user, this example has 2 patches), compiling with BLAS
% and LAPACK is also recommended and the way to get some parallelism (if
% the particular library supports it), to do so you need to set the env
% var CPPFLAGS=-DHAVE_LAPACK plus LDFLAGS and LIBS appropriately:
% Ref. LAPACK: LDFLAGS=-L/libdirpath  LIBS=-llapack -lrefblas -lgfortran
% OpenBLAS: LDFLAGS=-L/libdirpath  LIBS=-lopenblas -lgfortran
% Others are similar, check the docs of your library of choice.
KIND_INTERPOLATION = RADIAL_BASIS_FUNCTION
% Conserve virtual work by using the transpose of the displacement
% interpolation matrix when transferring fluid loads, this is usually the
% best option, if the range of cell sizes on the interface is large (2-3
% orders) and you have issues, break up the interface or use "NO" for
% consistent interpolation.
CONSERVATIVE_INTERPOLATION = YES
% Wendland provides good results and produces a nice diagonally dominant
% interpolation kernel, other options:
% INV_MULTI_QUADRIC;  GAUSSIAN;  THIN_PLATE_SPLINE;  MULTI_QUADRIC
KIND_RADIAL_BASIS_FUNCTION = WENDLAND_C2
% The radius in meters, 2 times the largest cell size on the interface is
% a good compromise between accuracy and condition number of the kernel.
RADIAL_BASIS_FUNCTION_PARAMETER = 0.015
% Recommended as it recovers rigid body motion, only requires a few more
% matrix products... feel free to explore though!
RADIAL_BASIS_FUNCTION_POLYNOMIAL_TERM = YES
%
% Physics -------------------------------------------------------------- %
PHYSICAL_PROBLEM= FLUID_STRUCTURE_INTERACTION
MATH_PROBLEM= DIRECT
%
FSI_FLUID_PROBLEM= EULER
KIND_TURB_MODEL= NONE
FSI_STRUCTURAL_PROBLEM= ELASTICITY
%
% Compressible free-stream conditions ---------------------------------- %
MACH_NUMBER= 0.7
AOA= 2.5
INIT_OPTION= TD_CONDITIONS
FREESTREAM_OPTION= TEMPERATURE_FS
FREESTREAM_PRESSURE= 101325.0
FREESTREAM_TEMPERATURE= 273.15
REYNOLDS_LENGTH= 0.5
%
% Fluid properties ----------------------------------------------------- %
FLUID_MODEL= IDEAL_GAS
GAMMA_VALUE= 1.4
GAS_CONSTANT= 287.87
%
% Solid properties ----------------------------------------------------- %
MATERIAL_MODEL= NEO_HOOKEAN
ELASTICITY_MODULUS= 7E8
POISSON_RATIO= 0.35
MATERIAL_DENSITY= 2700.0
%
% Boundary conditions -------------------------------------------------- %
% fluid
MARKER_FAR= ( farfield )
MARKER_EULER= ( leading_edge, 0.0, pressure_side, 0.0, suction_side, 0.0)
% interface
% this needs to appear before the last dummy load marker
MARKER_ZONE_INTERFACE= (pressure_side,pressure_side_s, suction_side,suction_side_s)
% solid
MARKER_CLAMPED = ( clamped )
% this needs to be here to make SU2 happy
MARKER_PRESSURE= ( pressure_side_s,0.0, suction_side_s,0.0 )
%
% Post processing and monitoring --------------------------------------- %
REF_ORIGIN_MOMENT_X= -0.125
REF_ORIGIN_MOMENT_Y= 0.00
REF_ORIGIN_MOMENT_Z= 0.00
REF_LENGTH= 0.5
REF_AREA= 0.5
MARKER_PLOTTING= ( leading_edge, pressure_side, suction_side )
MARKER_MONITORING= ( leading_edge, pressure_side, suction_side )
MARKER_DESIGNING= ( leading_edge, pressure_side, suction_side )
%
% Common numerics settings --------------------------------------------- %
REF_DIMENSIONALIZATION= DIMENSIONAL
NUM_METHOD_GRAD= GREEN_GAUSS
CFL_NUMBER= 10.0
%
% Flow numerics -------------------------------------------------------- %
CONV_NUM_METHOD_FLOW= JST
JST_SENSOR_COEFF= ( 0.5, 0.02 )
TIME_DISCRE_FLOW= EULER_IMPLICIT
%
% Solid numerics ------------------------------------------------------- %
GEOMETRIC_CONDITIONS= LARGE_DEFORMATIONS
FORMULATION_ELASTICITY_2D= PLANE_STRESS
%
% Linear solvers ------------------------------------------------------- %
LINEAR_SOLVER= BCGSTAB
LINEAR_SOLVER_PREC= ILU
LINEAR_SOLVER_ERROR= 1E-2
LINEAR_SOLVER_ITER= 100
% Multigrid
MGLEVEL= 1
MGCYCLE= V_CYCLE
MG_PRE_SMOOTH= ( 1, 2, 3, 3 )
MG_POST_SMOOTH= ( 0, 0, 0, 0 )
MG_CORRECTION_SMOOTH= ( 0, 0, 0, 0 )
MG_DAMP_RESTRICTION= 0.75
MG_DAMP_PROLONGATION= 0.75
%
FSI_LINEAR_SOLVER_STRUC= RESTARTED_FGMRES
FSI_LINEAR_SOLVER_PREC_STRUC= ILU
FSI_LINEAR_SOLVER_ERROR_STRUC= 1E-6
FSI_LINEAR_SOLVER_ITER_STRUC= 1000
LINEAR_SOLVER_RESTART_FREQUENCY= 100
%
DEFORM_LINEAR_SOLVER= CONJUGATE_GRADIENT
DEFORM_LINEAR_SOLVER_PREC= ILU
DEFORM_LINEAR_SOLVER_ERROR= 1e-6
DEFORM_LINEAR_SOLVER_ITER= 1000
%
% Convergence criteria ------------------------------------------------- %
EXT_ITER= 1
% interaction
FSI_ITER= 1
% if running from scratch this helps a bunch
%RAMP_LOADING= YES
%RAMP_FSI_ITER= 5
BGS_RELAXATION= FIXED_PARAMETER
STAT_RELAX_PARAMETER= 0.7
RESIDUAL_REDUCTION_FSI= 8
RESIDUAL_MINVAL_FSI= -8
% fluid
UNST_INT_ITER= 60
CONV_CRITERIA= RESIDUAL
STARTCONV_ITER= 0
RESIDUAL_REDUCTION= 9
RESIDUAL_MINVAL= -9
% solid
NONLINEAR_FEM_INT_ITER= 30
RESIDUAL_FEM_UTOL= -6.0
RESIDUAL_FEM_RTOL= -6.0
RESIDUAL_FEM_ETOL= -6.0
% grid deformation
DEFORM_NONLINEAR_ITER= 1
DEFORM_STIFFNESS_TYPE= INVERSE_VOLUME
%
% In\Out --------------------------------------------------------------- %
MESH_FILENAME= mesh.su2
MESH_FORMAT= SU2
%
RESTART_SOL= YES
SOLUTION_FLOW_FILENAME= solution_fluid.dat
SOLUTION_STRUCTURE_FILENAME= solution_solid.dat
WRT_SOL_FREQ= 999999
RESTART_FLOW_FILENAME= restart_fluid.dat
RESTART_STRUCTURE_FILENAME= restart_solid.dat
%
OUTPUT_FORMAT= PARAVIEW
VOLUME_FLOW_FILENAME= fluid
SURFACE_FLOW_FILENAME= surface_fluid
VOLUME_STRUCTURE_FILENAME= solid
%
WRT_CON_FREQ= 10
CONV_FILENAME= history

