%%%%%%%%%%%%%%%%%%%%%%%%%%%%%%%%%%%%%%%%%%%%%%%%%%%%%%%%%%%%%%%%%%%%%%%%%%%%%%%%
%                                                                              %
% SU2 configuration file                                                       %
% Case description: Cosine gust in z-direction of a 3D mesh                    %
% Author: Arne Voß                                                             %
% Institution: DLR                                                             %
% Date: 25.05.2023                                                             %
% File Version 8.0.0 "Harrier"                                                 %
%                                                                              %
%%%%%%%%%%%%%%%%%%%%%%%%%%%%%%%%%%%%%%%%%%%%%%%%%%%%%%%%%%%%%%%%%%%%%%%%%%%%%%%%

% ------------- DIRECT, ADJOINT, AND LINEARIZED PROBLEM DEFINITION ------------%
%
SOLVER= EULER
MATH_PROBLEM= DIRECT
%
RESTART_SOL= YES
RESTART_ITER= 72
%
% ------------------------------- SOLVER CONTROL ------------------------------%
%
INNER_ITER= 30
CONV_RESIDUAL_MINVAL= -6
CONV_STARTITER= 0
%
% ------------------------- UNSTEADY SIMULATION -------------------------------%
%
TIME_DOMAIN=YES
TIME_MARCHING= DUAL_TIME_STEPPING-2ND_ORDER
TIME_STEP= 0.001
TIME_ITER= 80
%
% --------------------------- GUST SIMULATION ---------------------------------%
%
% The gust simulation requires the GRID_MOVEMENT flag to be set to YES.
% and the GRID_MOVEMENT_KIND to be set to GUST or any of the other options.
% Apply a wind gust (NO, YES)
GRID_MOVEMENT=GUST
WIND_GUST= YES
GUST_TYPE= ONE_M_COSINE
GUST_DIR= Z_DIR
GUST_WAVELENGTH= 5.0
GUST_PERIODS= 1.0
% Gust amplitude corresponds to ~2.0 deg AoA
GUST_AMPL= 2.37
%
GUST_BEGIN_TIME= 0.0
% Gust is placed 5m ahead of the wing
GUST_BEGIN_LOC=-10.0
% -------------------- COMPRESSIBLE FREE-STREAM DEFINITION --------------------%
%
MACH_NUMBER= 0.2
AOA= 0.0
SIDESLIP_ANGLE= 0.0
FREESTREAM_OPTION= DENSITY_FS
FREESTREAM_PRESSURE= 101325.0
FREESTREAM_DENSITY= 1.225
FREESTREAM_TEMPERATURE= 288.15
%
% ---------------------- REFERENCE VALUE DEFINITION ---------------------------%
%
REF_ORIGIN_MOMENT_X = 0.25
REF_ORIGIN_MOMENT_Y = 0.00
REF_ORIGIN_MOMENT_Z = 0.00
REF_LENGTH= 1.0
REF_AREA= 3.0
SEMI_SPAN= 1.5
REF_DIMENSIONALIZATION= DIMENSIONAL

% -------------------- BOUNDARY CONDITION DEFINITION --------------------------%
%
MARKER_EULER= ( wing, tip)
MARKER_FAR= ( far_away )

% ------------------------ SURFACES IDENTIFICATION ----------------------------%
%
MARKER_PLOTTING = ( wing, tip )
MARKER_MONITORING = ( wing, tip )

% ------------- COMMON PARAMETERS DEFINING THE NUMERICAL METHOD ---------------%
%
CFL_NUMBER= 1000.0
CFL_ADAPT= YES
%
% -------------------------- MULTIGRID PARAMETERS -----------------------------%
%
MGLEVEL= 3
MGCYCLE= W_CYCLE

% -------------------- FLOW NUMERICAL METHOD DEFINITION -----------------------%
%
CONV_NUM_METHOD_FLOW= JST
LINEAR_SOLVER_ITER= 20
%
% ------------------------- SCREEN/HISTORY VOLUME OUTPUT --------------------------%
%
SCREEN_OUTPUT= (TIME_ITER, INNER_ITER, RMS_DENSITY, LIFT, MOMENT_X, MOMENT_Y, MOMENT_Z)
HISTORY_OUTPUT= (ITER, RMS_RES, AERO_COEFF, CAUCHY, WALL_TIME)
%
% ------------------------- INPUT/OUTPUT FILE INFORMATION --------------------------%
%
MESH_FILENAME= mesh_rectangular_wing.su2
MESH_FORMAT= SU2
SOLUTION_FILENAME= restart_gust.dat
RESTART_FILENAME= restart_gust.dat
SURFACE_FILENAME= surface_gust
VOLUME_FILENAME= volume_gust
CONV_FILENAME= history_gust
TABULAR_FORMAT= CSV
OUTPUT_FILES= (RESTART, RESTART_ASCII)
%