% Physics
SOLVER= ELASTICITY
MATH_PROBLEM= DISCRETE_ADJOINT
%
ITER= 1
%
% Optimization
TOPOLOGY_OPTIMIZATION= YES
FEA_FILENAME= element_properties.dat
TOPOL_OPTIM_FILTER_RADIUS= 0.013
TOPOL_OPTIM_FILTER_KERNEL= ( DILATE,ERODE )
TOPOL_OPTIM_KERNEL_PARAM= 0.01
TOPOL_OPTIM_PROJECTION_TYPE= NO_PROJECTION
TOPOL_OPTIM_PROJECTION_PARAM= 0.0
TOPOL_OPTIM_SIMP_EXPONENT= 3.0
TOPOL_OPTIM_OUTFILE= grad_vol_frac.dat
%
OBJECTIVE_FUNCTION= VOLUME_FRACTION
%
% Numerics
GEOMETRIC_CONDITIONS= SMALL_DEFORMATIONS
FORMULATION_ELASTICITY_2D= PLANE_STRESS
%
% Material properties
MATERIAL_MODEL= LINEAR_ELASTIC
ELASTICITY_MODULUS= 1070
POISSON_RATIO= 0.3
MATERIAL_DENSITY= 1000
%
% Boundary conditions
MARKER_CLAMPED= ( clamped )
MARKER_PRESSURE= ( free,0.0 )
MARKER_LOAD= ( load, 1, 1, 0, -1, 0)
%
% Linear solver
LINEAR_SOLVER= CONJUGATE_GRADIENT
LINEAR_SOLVER_PREC= JACOBI
LINEAR_SOLVER_ERROR= 1E-9
LINEAR_SOLVER_ITER= 1
DISCADJ_LIN_SOLVER= CONJUGATE_GRADIENT
DISCADJ_LIN_PREC= JACOBI
%
% In/Out
MESH_FILENAME= mesh.su2
MESH_FORMAT= SU2
TABULAR_FORMAT= CSV
SOLUTION_FILENAME= direct.dat
RESTART_FILENAME= direct.dat
OUTPUT_FILES= PARAVIEW