%%%%%%%%%%%%%%%%%%%%%%%%%%%%%%%%%%%%%%%%%%%%%%%%%%%%%%%%%%%%%%%%%%%%%%%%%%%%%%%%
%                                                                              %
% SU2 configuration file                                                       %
% Case description: 3D, inviscid flow inside a pipe with rotating sections     %
%                   nearest neighbour approach holds at sliding interface      %
% Author: G. Gori                                                              %
% Institution: Politecnico di Milano                                           %
% Date: Oct 5th, 2016                                                          %
% File Version 8.0.0 "Harrier"                                                 %
%                                                                              %
%%%%%%%%%%%%%%%%%%%%%%%%%%%%%%%%%%%%%%%%%%%%%%%%%%%%%%%%%%%%%%%%%%%%%%%%%%%%%%%%
%
MULTIZONE= YES
CONFIG_LIST= (zone_1.cfg, zone_2.cfg)
%
% ------------- DIRECT, ADJOINT, AND LINEARIZED PROBLEM DEFINITION ------------%
%
SOLVER= EULER
KIND_TURB_MODEL= SST
MATH_PROBLEM= DIRECT
RESTART_SOL= NO
%
% ------------------------- UNSTEADY SIMULATION -------------------------------%
%
TIME_DOMAIN=YES
TIME_MARCHING= DUAL_TIME_STEPPING-2ND_ORDER
TIME_STEP= 0.1
MAX_TIME= 10.0
INNER_ITER= 200
RESTART_ITER = 2
%
% -------------------- COMPRESSIBLE FREE-STREAM DEFINITION --------------------%
%
MACH_NUMBER= 3.0
AOA= 0.0
FREESTREAM_PRESSURE= 95750
FREESTREAM_TEMPERATURE= 288.15
FREESTREAM_TURBULENCEINTENSITY = 0.1
FREESTREAM_TURB2LAMVISCRATIO = 100.0
FREESTREAM_OPTION= TEMPERATURE_FS
INIT_OPTION= TD_CONDITIONS
%
% -------------------- BOUNDARY CONDITION DEFINITION --------------------------%
%
MARKER_EULER= ( stator_sidewall, rotor_sidewall )
MARKER_RIEMANN= (upper_inlet, STATIC_SUPERSONIC_INFLOW_PT, 95750, 288.15, 3.0, 0.0, 0.0, lower_inlet, STATIC_SUPERSONIC_INFLOW_PT, 95750, 288.15, 1.5, 0.0, 0.0, outlet, STATIC_PRESSURE, 95750.0, 0.0, 0.0, 0.0, 0.0 )
MARKER_ZONE_INTERFACE= ( stator_interface, rotor_interface )
MARKER_FLUID_INTERFACE= ( stator_interface, rotor_interface )
KIND_INTERPOLATION= WEIGHTED_AVERAGE
%
% ------------- COMMON PARAMETERS DEFINING THE NUMERICAL METHOD ---------------%
%
NUM_METHOD_GRAD= WEIGHTED_LEAST_SQUARES
CFL_NUMBER= 5.0
CFL_ADAPT= NO
CFL_ADAPT_PARAM= ( 0.3, 0.5, 1.0, 1000.0)
%
% ------------------------ LINEAR SOLVER DEFINITION ---------------------------%
%
LINEAR_SOLVER= FGMRES
LINEAR_SOLVER_PREC= LU_SGS
LINEAR_SOLVER_ERROR= 1E-4
LINEAR_SOLVER_ITER= 5
%
% ----------------------- SLOPE LIMITER DEFINITION ----------------------------%
%
VENKAT_LIMITER_COEFF= 0.05
LIMITER_ITER= 999999
%
% -------------------- FLOW NUMERICAL METHOD DEFINITION -----------------------%
%
CONV_NUM_METHOD_FLOW= ROE
MUSCL_FLOW= YES
ENTROPY_FIX_COEFF= 0.001
JST_SENSOR_COEFF= ( 0.5, 0.02 )
SLOPE_LIMITER_FLOW= NONE
TIME_DISCRE_FLOW= EULER_IMPLICIT
%
% -------------------- TURBULENT NUMERICAL METHOD DEFINITION ------------------%
%
CONV_NUM_METHOD_TURB= SCALAR_UPWIND
MUSCL_TURB= NO
SLOPE_LIMITER_TURB= VENKATAKRISHNAN
TIME_DISCRE_TURB= EULER_IMPLICIT
CFL_REDUCTION_TURB= 1.0
%
% --------------------------- CONVERGENCE PARAMETERS --------------------------%
%
CONV_RESIDUAL_MINVAL= -16
CONV_STARTITER= 10
CONV_CAUCHY_ELEMS= 100
CONV_CAUCHY_EPS= 1E-6
%
% ------------------------- INPUT/OUTPUT INFORMATION --------------------------%
%
MESH_FILENAME= mesh.su2
MESH_FORMAT= SU2
MESH_OUT_FILENAME= su2mesh_per.su2
SOLUTION_FILENAME= restart_flow.dat
TABULAR_FORMAT= CSV	
CONV_FILENAME= history
RESTART_FILENAME= restart_flow.dat
VOLUME_FILENAME= flow
SURFACE_FILENAME= surface_flow
OUTPUT_WRT_FREQ= 50
