%%%%%%%%%%%%%%%%%%%%%%%%%%%%%%%%%%%%%%%%%%%%%%%%%%%%%%%%%%%%%%%%%%%%%%%%%%%%%%%%
%                                                                              %
% SU2 configuration file                                                       %
% Case description: Optimization case for the ONERA M6 wing in inviscid flow   %
% Author: Francisco Palacios, Heather Kline                                    %
% Institution: Stanford University                                             %
% Date: 01.17.2017                                                             %
% File Version 8.0.0 "Harrier"                                                 %
%                                                                              %
%%%%%%%%%%%%%%%%%%%%%%%%%%%%%%%%%%%%%%%%%%%%%%%%%%%%%%%%%%%%%%%%%%%%%%%%%%%%%%%%

% ------------- DIRECT, ADJOINT, AND LINEARIZED PROBLEM DEFINITION ------------%
%
SOLVER= EULER
MATH_PROBLEM= DISCRETE_ADJOINT 
RESTART_SOL= NO
DISCARD_INFILES= YES
ITER = 11

% -------------------- COMPRESSIBLE FREE-STREAM DEFINITION --------------------%
%
MACH_NUMBER= 0.8395
AOA= 3.06
FREESTREAM_PRESSURE= 101325.0
FREESTREAM_TEMPERATURE= 288.15

% -------------------------- CL DRIVER DEFINITION -----------------------------%
%
FIXED_CL_MODE= NO 
TARGET_CL= 0.286 
DCL_DALPHA= 0.1
UPDATE_AOA_ITER_LIMIT= 100
ITER_DCL_DALPHA= 500

% ---------------------- REFERENCE VALUE DEFINITION ---------------------------%
%
REF_ORIGIN_MOMENT_X = 0.2015
REF_ORIGIN_MOMENT_Y = 0.00
REF_ORIGIN_MOMENT_Z = 0.00
REF_LENGTH= 0.64607
REF_AREA= 0
REF_DIMENSIONALIZATION= FREESTREAM_PRESS_EQ_ONE

% ----------------------- BOUNDARY CONDITION DEFINITION -----------------------%
%
MARKER_EULER= ( UPPER_SIDE, LOWER_SIDE, TIP )
MARKER_FAR= ( XNORMAL_FACES, ZNORMAL_FACES, YNORMAL_FACE )
MARKER_SYM= ( SYMMETRY_FACE )
MARKER_PLOTTING= ( UPPER_SIDE, LOWER_SIDE, TIP )
MARKER_MONITORING= ( UPPER_SIDE, LOWER_SIDE, TIP )

% ------------- COMMON PARAMETERS DEFINING THE NUMERICAL METHOD ---------------%
%
NUM_METHOD_GRAD= GREEN_GAUSS
OBJECTIVE_FUNCTION= DRAG
CFL_NUMBER= 7.5

% ------------------------ LINEAR SOLVER DEFINITION ---------------------------%
%
LINEAR_SOLVER= FGMRES
LINEAR_SOLVER_PREC= ILU 
LINEAR_SOLVER_ERROR= 1E-6
LINEAR_SOLVER_ITER= 2 

% --------------------- FLOW NUMERICAL METHOD DEFINITION ----------------------%
%
CONV_NUM_METHOD_FLOW= JST
JST_SENSOR_COEFF= ( 0.5, 0.02 )
TIME_DISCRE_FLOW= EULER_IMPLICIT

% ----------------- ADJOINT-FLOW NUMERICAL METHOD DEFINITION ------------------%
%
CONV_NUM_METHOD_ADJFLOW= JST
ADJ_JST_SENSOR_COEFF= ( 0.5, 0.02 )
CFL_REDUCTION_ADJFLOW= 0.75
TIME_DISCRE_ADJFLOW= EULER_IMPLICIT

% ----------------------- GEOMETRY EVALUATION PARAMETERS ----------------------%
%
GEO_MARKER= ( UPPER_SIDE, LOWER_SIDE, TIP )
GEO_DESCRIPTION= WING
GEO_LOCATION_STATIONS= (0.0, 0.2, 0.4, 0.6, 0.8)
GEO_BOUNDS= (0, 0.8)
GEO_PLOT_STATIONS= YES 
GEO_NUMBER_STATIONS= 25
GEO_MODE= FUNCTION

% --------------------------- CONVERGENCE PARAMETERS --------------------------&
%
CONV_RESIDUAL_MINVAL= -12
CONV_STARTITER= 25
CONV_CAUCHY_ELEMS= 100
CONV_CAUCHY_EPS= 1E-10

% ------------------------- INPUT/OUTPUT INFORMATION --------------------------%
%
MESH_FILENAME= mesh_ONERAM6_inv.su2
MESH_OUT_FILENAME= mesh_out.su2
SOLUTION_FILENAME= solution_flow.dat
SOLUTION_ADJ_FILENAME= solution_adj.dat
MESH_FORMAT= SU2
TABULAR_FORMAT= CSV
CONV_FILENAME= history
RESTART_FILENAME= restart_flow.dat
RESTART_ADJ_FILENAME= restart_adj.dat
VOLUME_FILENAME= flow
VOLUME_ADJ_FILENAME= adjoint
GRAD_OBJFUNC_FILENAME= of_grad.dat
SURFACE_FILENAME= surface_flow
SURFACE_ADJ_FILENAME= surface_adjoint
OUTPUT_WRT_FREQ= 100
