SOLVER= EULER
KIND_TURB_MODEL= NONE
MATH_PROBLEM= DIRECT
RESTART_SOL= NO
MACH_NUMBER= 0.3
AOA= 0.0
SIDESLIP_ANGLE= 0.0
FREESTREAM_TEMPERATURE= 288.15
REYNOLDS_NUMBER= 1.0
REYNOLDS_LENGTH= 1.0

REF_ORIGIN_MOMENT_X = 0.0
REF_ORIGIN_MOMENT_Y = 0.0
REF_ORIGIN_MOMENT_Z = 0.0
REF_LENGTH= 1.0
REF_AREA= 1.0
REF_DIMENSIONALIZATION= FREESTREAM_PRESS_EQ_ONE

ACTDISK_TYPE= VARIABLES_JUMP
ACTDISK_JUMP= DIFFERENCE
MARKER_ACTDISK = ( ACTDISK, ACTDISK_BACK, 0.0, 0.0, 0.0, 0.0, 0.0, 0.0 )
MARKER_INLET= ( INLET, 288.15, 101325.0, 1.0, 0.0, 0.0 )
MARKER_OUTLET= ( OUTLET, 101325.0 )
MARKER_EULER= ( WALL )

MARKER_PLOTTING = ( ACTDISK, ACTDISK_BACK )
MARKER_MONITORING = ( ACTDISK, ACTDISK_BACK )

NUM_METHOD_GRAD= GREEN_GAUSS
CFL_NUMBER= 1.0
CFL_ADAPT= NO
ITER= 1

MESH_FILENAME= actdisk_2d.su2
MESH_FORMAT= SU2
MESH_OUT_FILENAME= mesh_out.su2
SOLUTION_FILENAME= solution_flow.csv
TABULAR_FORMAT= CSV
CONV_FILENAME= history
OUTPUT_WRT_FREQ= 1
SCREEN_OUTPUT= (INNER_ITER, RMS_DENSITY)
