% ------------- DIRECT, ADJOINT, AND LINEARIZED PROBLEM DEFINITION ------------%
%
SOLVER= EULER
MATH_PROBLEM= DISCRETE_ADJOINT
RESTART_SOL= NO

TIME_ITER= 5
INNER_ITER= 50

% ------------------------- UNSTEADY SIMULATION -------------------------------%
%
TIME_DOMAIN= YES
TIME_MARCHING= DUAL_TIME_STEPPING-2ND_ORDER
TIME_STEP= 0.0023555025613149587
% 24 steps per period: 0.0024536485013697488
% 25 steps per period: 0.0023555025613149587
%
% Total Physical Time for dual time stepping simulations (s)
% 150 steps
MAX_TIME= 0.354
RESTART_ITER= 10
UNST_ADJOINT_ITER= 151

% ----------------------- DYNAMIC MESH DEFINITION -----------------------------%
%
GRID_MOVEMENT= RIGID_MOTION
MACH_MOTION= 0.796
MOTION_ORIGIN= (0.248 0.0 0.0)
PITCHING_OMEGA= (0.0 0.0 106.69842)
PITCHING_AMPL= (0.0 0.0 1.01)

% -------------------- COMPRESSIBLE FREE-STREAM DEFINITION --------------------%
%
MACH_NUMBER= 0.8
AOA= 1.25
FREESTREAM_PRESSURE= 101325.0
FREESTREAM_TEMPERATURE= 288.15

% ---------------------- REFERENCE VALUE DEFINITION ---------------------------%
%
REF_ORIGIN_MOMENT_X = 0.25
REF_ORIGIN_MOMENT_Y = 0.00
REF_ORIGIN_MOMENT_Z = 0.00
REF_LENGTH= 1.0
REF_AREA= 1.0
REF_DIMENSIONALIZATION= FREESTREAM_PRESS_EQ_ONE

% ----------------------- BOUNDARY CONDITION DEFINITION -----------------------%
%
MARKER_EULER= ( airfoil )
MARKER_FAR= ( farfield )

% ------------------------ SURFACES IDENTIFICATION ----------------------------%
%
MARKER_PLOTTING= ( airfoil )
MARKER_MONITORING= ( airfoil )

% ------------- COMMON PARAMETERS DEFINING THE NUMERICAL METHOD ---------------%
%
NUM_METHOD_GRAD= GREEN_GAUSS
CFL_NUMBER= 10.0
CFL_ADAPT= NO
CFL_ADAPT_PARAM= ( 1.5, 0.5, 1.0, 100.0 )
RK_ALPHA_COEFF= ( 0.66667, 0.66667, 1.000000 )

% ------------------------ LINEAR SOLVER DEFINITION ---------------------------%
%
LINEAR_SOLVER= FGMRES
LINEAR_SOLVER_PREC= ILU
LINEAR_SOLVER_ERROR= 1E-4
LINEAR_SOLVER_ITER= 2

% -------------------------- MULTIGRID PARAMETERS -----------------------------%
%
MGLEVEL= 2
MGCYCLE= V_CYCLE
MG_PRE_SMOOTH= ( 1, 2, 3, 3 )
MG_POST_SMOOTH= ( 0, 0, 0, 0 )
MG_CORRECTION_SMOOTH= ( 0, 0, 0, 0 )
MG_DAMP_RESTRICTION= 1.0
MG_DAMP_PROLONGATION= 1.0

% --------------------- FLOW NUMERICAL METHOD DEFINITION ----------------------%
%
CONV_NUM_METHOD_FLOW= JST
SLOPE_LIMITER_FLOW= VENKATAKRISHNAN
JST_SENSOR_COEFF= ( 0.5, 0.02 )
TIME_DISCRE_FLOW= EULER_IMPLICIT

% ---------------- ADJOINT-FLOW NUMERICAL METHOD DEFINITION -------------------%
%
OBJECTIVE_FUNCTION= EFFICIENCY
OPT_OBJECTIVE= EFFICIENCY
CONV_NUM_METHOD_ADJFLOW= JST
SLOPE_LIMITER_ADJFLOW= VENKATAKRISHNAN
ADJ_JST_SENSOR_COEFF= ( 0.0, 0.02 )
TIME_DISCRE_ADJFLOW= EULER_IMPLICIT
CFL_REDUCTION_ADJFLOW= 0.8
LIMIT_ADJFLOW= 1E6

% -------------------- FREE-FORM DEFORMATION PARAMETERS -----------------------%
%
FFD_TOLERANCE= 1E-10
FFD_ITERATIONS= 500
FFD_DEFINITION= (airfoil_box, -0.1, -0.25, 0, 1.1, -0.25, 0, 1.1, 0.25, 0, -0.1, 0.25, 0, 0, 0, 0, 0, 0, 0, 0, 0, 0, 0, 0, 0)
FFD_DEGREE= (10, 1, 0)
FFD_CONTINUITY= 2ND_DERIVATIVE

% ----------------------- DESIGN VARIABLE PARAMETERS --------------------------%
%
DV_KIND= FFD_SETTING
DV_MARKER= ( airfoil )
DV_PARAM= ( airfoil_box, 5, 0, 0, 0.0, 1.0, 0.0 )
DV_VALUE= 0.05

% ------------------------ GRID DEFORMATION PARAMETERS ------------------------%
%
DEFORM_LINEAR_SOLVER_ITER= 500
DEFORM_NONLINEAR_ITER= 1
DEFORM_CONSOLE_OUTPUT= YES
DEFORM_LINEAR_SOLVER_ERROR = 0.000000001
DEFORM_STIFFNESS_TYPE= INVERSE_VOLUME

% --------------------------- CONVERGENCE PARAMETERS --------------------------%
%
CONV_RESIDUAL_MINVAL= -20
CONV_STARTITER= 10
CONV_CAUCHY_ELEMS= 100
CONV_CAUCHY_EPS= 1E-6

% ------------------------- INPUT/OUTPUT INFORMATION --------------------------%
%
MESH_FILENAME= mesh_NACA0012_inv_FFD.su2
MESH_FORMAT= SU2
MESH_OUT_FILENAME= mesh_out.su2
SOLUTION_FILENAME= solution_flow.dat
SOLUTION_ADJ_FILENAME= solution_adj.dat
TABULAR_FORMAT= CSV
CONV_FILENAME= history
RESTART_FILENAME= restart_flow.dat
RESTART_ADJ_FILENAME= restart_adj.dat
VOLUME_FILENAME= flow
VOLUME_ADJ_FILENAME= adjoint
GRAD_OBJFUNC_FILENAME= of_grad.dat
SURFACE_FILENAME= surface_flow
SURFACE_ADJ_FILENAME= surface_adjoint
OUTPUT_WRT_FREQ= 1
SCREEN_OUTPUT=(TIME_ITER, INNER_ITER, RMS_ADJ_DENSITY, RMS_ADJ_ENERGY, SENS_PRESS, SENS_AOA)
DEFINITION_DV= ( 11, 1.0 | airfoil | airfoil_box, 0, 0, 0, 0.0, 1.0, 0.0 ); ( 11, 1.0 | airfoil | airfoil_box, 1, 0, 0, 0.0, 1.0, 0.0 ); ( 11, 1.0 | airfoil | airfoil_box, 2, 0, 0, 0.0, 1.0, 0.0 ); ( 11, 1.0 | airfoil | airfoil_box, 3, 0, 0, 0.0, 1.0, 0.0 ); ( 11, 1.0 | airfoil | airfoil_box, 4, 0, 0, 0.0, 1.0, 0.0 ); ( 11, 1.0 | airfoil | airfoil_box, 5, 0, 0, 0.0, 1.0, 0.0 ); ( 11, 1.0 | airfoil | airfoil_box, 6, 0, 0, 0.0, 1.0, 0.0 ); ( 11, 1.0 | airfoil | airfoil_box, 7, 0, 0, 0.0, 1.0, 0.0 ); ( 11, 1.0 | airfoil | airfoil_box, 8, 0, 0, 0.0, 1.0, 0.0 ); ( 11, 1.0 | airfoil | airfoil_box, 9, 0, 0, 0.0, 1.0, 0.0 ); ( 11, 1.0 | airfoil | airfoil_box, 10, 0, 0, 0.0, 1.0, 0.0 ); ( 11, 1.0 | airfoil | airfoil_box, 0, 1, 0, 0.0, 1.0, 0.0 ); ( 11, 1.0 | airfoil | airfoil_box, 1, 1, 0, 0.0, 1.0, 0.0 ); ( 11, 1.0 | airfoil | airfoil_box, 2, 1, 0, 0.0, 1.0, 0.0 ); ( 11, 1.0 | airfoil | airfoil_box, 3, 1, 0, 0.0, 1.0, 0.0 ); ( 11, 1.0 | airfoil | airfoil_box, 4, 1, 0, 0.0, 1.0, 0.0 ); ( 11, 1.0 | airfoil | airfoil_box, 5, 1, 0, 0.0, 1.0, 0.0 ); ( 11, 1.0 | airfoil | airfoil_box, 6, 1, 0, 0.0, 1.0, 0.0 ); ( 11, 1.0 | airfoil | airfoil_box, 7, 1, 0, 0.0, 1.0, 0.0 ); ( 11, 1.0 | airfoil | airfoil_box, 8, 1, 0, 0.0, 1.0, 0.0 ); ( 11, 1.0 | airfoil | airfoil_box, 9, 1, 0, 0.0, 1.0, 0.0 ); ( 11, 1.0 | airfoil | airfoil_box, 10, 1, 0, 0.0, 1.0, 0.0 )
