%%%%%%%%%%%%%%%%%%%%%%%%%%%%%%%%%%%%%%%%%%%%%%%%%%%%%%%%%%%%%%%%%%%%%%%%%%%%%%%%%%%%%%
%                                                                                    %
% SU2 configuration file                                                             %
% Case description: Turbulent flow over rough flat plate with zero pressure gradient %
% Author: Thomas D. Economon                                                         %
% Institution: Stanford University                                                   %
% Date: 2011.11.10                                                                   %
% File Version 8.3.0 "Harrier"                                                       %
%                                                                                    %
%%%%%%%%%%%%%%%%%%%%%%%%%%%%%%%%%%%%%%%%%%%%%%%%%%%%%%%%%%%%%%%%%%%%%%%%%%%%%%%%%%%%%%

% ------------- DIRECT, ADJOINT, AND LINEARIZED PROBLEM DEFINITION ------------%
%
SOLVER= RANS
KIND_TURB_MODEL= SST
WALL_ROUGHNESS = (wall, 400e-6)
KIND_ROUGHSST_MODEL = WILCOX2006
MATH_PROBLEM= DIRECT
RESTART_SOL= YES
READ_BINARY_RESTART= YES

% ----------- COMPRESSIBLE AND INCOMPRESSIBLE FREE-STREAM DEFINITION ----------%
MACH_NUMBER= 0.2
AOA= 0.0
SIDESLIP_ANGLE= 0.0
FREESTREAM_TEMPERATURE= 300.0
REYNOLDS_NUMBER= 5000000.0
REYNOLDS_LENGTH= 1.0

% ---------------------- REFERENCE VALUE DEFINITION ---------------------------%
%
REF_ORIGIN_MOMENT_X = 0.25
REF_ORIGIN_MOMENT_Y = 0.00
REF_ORIGIN_MOMENT_Z = 0.00
REF_LENGTH= 1.0
REF_AREA= 2.0

% -------------------- BOUNDARY CONDITION DEFINITION --------------------------%
%
MARKER_HEATFLUX= ( wall, 0.0 )
MARKER_INLET= ( inlet, 302.4, 118309.784, 1.0, 0.0, 0.0 )
MARKER_OUTLET= ( outlet, 115056.0, farfield, 115056.0 )
MARKER_SYM= ( symmetry )
MARKER_PLOTTING= ( wall )
MARKER_MONITORING= ( wall )

% ------------- COMMON PARAMETERS DEFINING THE NUMERICAL METHOD ---------------%
%
NUM_METHOD_GRAD= WEIGHTED_LEAST_SQUARES
CFL_NUMBER= 100.0
CFL_ADAPT= YES
CFL_ADAPT_PARAM= ( 0.1, 2.0, 100.0, 1e5 )
RK_ALPHA_COEFF= ( 0.66667, 0.66667, 1.000000 )
ITER= 99999

% ----------------------- SLOPE LIMITER DEFINITION ----------------------------%
%
VENKAT_LIMITER_COEFF= 0.1
ADJ_SHARP_LIMITER_COEFF= 3.0
REF_SHARP_EDGES= 3.0
SENS_REMOVE_SHARP= NO

% -------------------------- MULTIGRID PARAMETERS -----------------------------%
%
MGLEVEL= 0
% -------------------- FLOW NUMERICAL METHOD DEFINITION -----------------------%
%
CONV_NUM_METHOD_FLOW= ROE
%
MUSCL_FLOW= YES
SLOPE_LIMITER_FLOW= NONE
JST_SENSOR_COEFF= ( 0.5, 0.02 )
TIME_DISCRE_FLOW= EULER_IMPLICIT

% -------------------- TURBULENT NUMERICAL METHOD DEFINITION ------------------%
%

CONV_NUM_METHOD_TURB= SCALAR_UPWIND
MUSCL_TURB= NO
SLOPE_LIMITER_TURB= VENKATAKRISHNAN
TIME_DISCRE_TURB= EULER_IMPLICIT

% --------------------------- CONVERGENCE PARAMETERS --------------------------%
%
CONV_FIELD= RMS_DENSITY
CONV_RESIDUAL_MINVAL= -14
CONV_STARTITER= 10
CONV_CAUCHY_ELEMS= 100
CONV_CAUCHY_EPS= 1E-6
%

% ------------------------- INPUT/OUTPUT INFORMATION --------------------------%
%
MESH_FILENAME= mesh_flatplate_turb_137x97
MESH_FORMAT= SU2
MESH_OUT_FILENAME= mesh_out
SOLUTION_FILENAME= restart_flow
SOLUTION_ADJ_FILENAME= restart_adj
TABULAR_FORMAT= CSV
CONV_FILENAME= history
RESTART_FILENAME= restart_flow
RESTART_ADJ_FILENAME= restart_adj
VOLUME_FILENAME= flow
VOLUME_ADJ_FILENAME= adjoint
GRAD_OBJFUNC_FILENAME= of_grad.dat
SURFACE_FILENAME= surface_flow
SURFACE_ADJ_FILENAME= surface_adjoint
OUTPUT_WRT_FREQ= 1000
SCREEN_OUTPUT= (INNER_ITER, WALL_TIME, RMS_RES, LIFT, DRAG)
