%%%%%%%%%%%%%%%%%%%%%%%%%%%%%%%%%%%%%%%%%%%%%%%%%%%%%%%%%%%%%%%%%%%%%%%%%%%%%%%%
%                                                                              %
% SU2 configuration file                                                       %
% Case description: Subsonic laminar flow around a circle cylinder.            %
% Author: Edwin van der Weide                                                  %
% Institution: University of Twente                                            %
% Date: 2016.07.15                                                             %
% File Version 8.0.0 "Harrier"                                                 %
%                                                                              %
%%%%%%%%%%%%%%%%%%%%%%%%%%%%%%%%%%%%%%%%%%%%%%%%%%%%%%%%%%%%%%%%%%%%%%%%%%%%%%%%

% ------------- DIRECT, ADJOINT, AND LINEARIZED PROBLEM DEFINITION ------------%
%
SOLVER= FEM_NAVIER_STOKES
MATH_PROBLEM= DIRECT
RESTART_SOL= NO

% ----------- COMPRESSIBLE AND INCOMPRESSIBLE FREE-STREAM DEFINITION ----------%
%
MACH_NUMBER= 0.2
REYNOLDS_NUMBER= 40
REYNOLDS_LENGTH= 1.0
AoA= 0.0
FREESTREAM_TEMPERATURE= 273.15

% -------------- COMPRESSIBLE AND INCOMPRESSIBLE FLUID CONSTANTS --------------%
%
GAMMA_VALUE= 1.4
GAS_CONSTANT= 287.87

% ---------------------- REFERENCE VALUE DEFINITION ---------------------------%
%
REF_ORIGIN_MOMENT_X = 0.00
REF_ORIGIN_MOMENT_Y = 0.00
REF_ORIGIN_MOMENT_Z = 0.00
REF_LENGTH= 1.0
REF_AREA= 1.0
REF_DIMENSIONALIZATION= FREESTREAM_PRESS_EQ_ONE

% ----------------------- BOUNDARY CONDITION DEFINITION -----------------------%
%
MARKER_HEATFLUX= ( Cylinder, 0.0 )
MARKER_FAR= ( Farfield )

% ------------------------ SURFACES IDENTIFICATION ----------------------------%
%
MARKER_PLOTTING = ( Cylinder )
MARKER_MONITORING = ( Cylinder )
MARKER_DESIGNING = ( Cylinder )

% ------------- COMMON PARAMETERS TO DEFINE THE NUMERICAL METHOD --------------%
%
CFL_NUMBER= 0.05
ITER= 11
RK_ALPHA_COEFF= ( 0.66667, 0.66667, 1.000000 )

% ------------------ FEM FLOW NUMERICAL METHOD DEFINITION ----------------------%
%
NUM_METHOD_FEM_FLOW= DG
RIEMANN_SOLVER_FEM= ROE
QUADRATURE_FACTOR_STRAIGHT_FEM = 2.0
QUADRATURE_FACTOR_CURVED_FEM = 3.0
USE_LUMPED_MASSMATRIX_DGFEM= YES
TIME_DISCRE_FEM_FLOW= RUNGE-KUTTA_EXPLICIT

% --------------------------- CONVERGENCE PARAMETERS --------------------------%
%
CONV_RESIDUAL_MINVAL= -8
CONV_STARTITER= 10
CONV_CAUCHY_ELEMS= 100
CONV_CAUCHY_EPS= 1E-6

% ------------------------- INPUT/OUTPUT INFORMATION --------------------------%
%
MESH_FILENAME= CylinderViscous_nPoly3.su2
MESH_FORMAT= SU2
MESH_OUT_FILENAME= mesh_out.su2
SOLUTION_FILENAME= solution_flow.dat
SOLUTION_ADJ_FILENAME= solution_adj.dat
TABULAR_FORMAT= CSV
CONV_FILENAME= history
RESTART_FILENAME= restart_flow.dat
RESTART_ADJ_FILENAME= restart_adj.dat
VOLUME_FILENAME= flow
VOLUME_ADJ_FILENAME= adjoint
GRAD_OBJFUNC_FILENAME= of_grad.dat
SURFACE_FILENAME= surface_flow
SURFACE_ADJ_FILENAME= surface_adjoint
OUTPUT_WRT_FREQ= 250
SCREEN_OUTPUT= (INNER_ITER, RMS_DENSITY, RMS_ENERGY, LIFT, DRAG)
