%%%%%%%%%%%%%%%%%%%%%%%%%%%%%%%%%%%%%%%%%%%%%%%%%%%%%%%%%%%%%%%%%%%%%%%%%%%%%%%%
%                                                                              %
% SU2 configuration file                                                       %
% Case description: Adjoint transonic inviscid flow around a NACA0012 airfoil  %
% Author: Thomas D. Economon                                                   %
% Institution: Stanford University                                             %
% Date: 2011.11.02                                                             %
% File Version 8.0.0 "Harrier"                                                 %
%                                                                              %
%%%%%%%%%%%%%%%%%%%%%%%%%%%%%%%%%%%%%%%%%%%%%%%%%%%%%%%%%%%%%%%%%%%%%%%%%%%%%%%%

% ------------- DIRECT, ADJOINT, AND LINEARIZED PROBLEM DEFINITION ------------%
%
SOLVER= EULER
MATH_PROBLEM= CONTINUOUS_ADJOINT
RESTART_SOL= NO
READ_BINARY_RESTART= NO
NZONES= 1

% ----------- COMPRESSIBLE AND INCOMPRESSIBLE FREE-STREAM DEFINITION ----------%
%
MACH_NUMBER= 0.8
AOA= 1.25
FREESTREAM_PRESSURE= 101325.0
FREESTREAM_TEMPERATURE= 288.15

% ---------------------- REFERENCE VALUE DEFINITION ---------------------------%
%
REF_ORIGIN_MOMENT_X = 0.25
REF_ORIGIN_MOMENT_Y = 0.00
REF_ORIGIN_MOMENT_Z = 0.00
REF_LENGTH= 1.0
REF_AREA= 1.0
FIN_DIFF_STEP = 0.001

% ----------------------- BOUNDARY CONDITION DEFINITION -----------------------%
%
MARKER_EULER= ( airfoil )
MARKER_FAR= ( farfield )
MARKER_PLOTTING= ( airfoil )
MARKER_MONITORING= ( airfoil )

% ------------- COMMON PARAMETERS TO DEFINE THE NUMERICAL METHOD --------------%
%
NUM_METHOD_GRAD= GREEN_GAUSS
OBJECTIVE_FUNCTION= DRAG
CFL_NUMBER= 5.0
CFL_ADAPT= NO
CFL_ADAPT_PARAM= ( 1.5, 0.5, 1.0, 100.0 )
RK_ALPHA_COEFF= ( 0.66667, 0.66667, 1.000000 )
ITER= 10

% ------------------------ LINEAR SOLVER DEFINITION ---------------------------%
%
LINEAR_SOLVER= FGMRES
LINEAR_SOLVER_PREC= ILU
LINEAR_SOLVER_ILU_FILL_IN= 0

% -------------------------- MULTIGRID PARAMETERS -----------------------------%
%
MGLEVEL= 2
MGCYCLE= W_CYCLE
MG_PRE_SMOOTH= ( 1, 2, 2, 2 )
MG_POST_SMOOTH= ( 1, 1, 1, 1 )
MG_CORRECTION_SMOOTH= ( 1, 1, 1, 1 )
MG_DAMP_RESTRICTION= 1.0
MG_DAMP_PROLONGATION= 1.0

% -------------------- FLOW NUMERICAL METHOD DEFINITION -----------------------%
%
CONV_NUM_METHOD_FLOW= JST
JST_SENSOR_COEFF= ( 0.5, 0.02 )
TIME_DISCRE_FLOW= EULER_IMPLICIT

% ---------------- ADJOINT-FLOW NUMERICAL METHOD DEFINITION -------------------%
%
CONV_NUM_METHOD_ADJFLOW= ROE
MUSCL_ADJFLOW= YES
SLOPE_LIMITER_ADJFLOW= NONE
ADJ_SHARP_LIMITER_COEFF= 3.0
ADJ_JST_SENSOR_COEFF= ( 0.5, 0.02 )
CFL_REDUCTION_ADJFLOW= 0.5
TIME_DISCRE_ADJFLOW= EULER_IMPLICIT

% ----------------------- DESIGN VARIABLE PARAMETERS --------------------------%
%
DV_KIND= HICKS_HENNE
DV_MARKER= ( airfoil )
DV_PARAM= ( 1, 0.5 )
DV_VALUE= 0.01

% ------------------------ GRID DEFORMATION PARAMETERS ------------------------%
%
DEFORM_LINEAR_SOLVER= FGMRES
%
DEFORM_LINEAR_SOLVER_PREC= LU_SGS
DEFORM_LINEAR_SOLVER_ITER= 1000
DEFORM_NONLINEAR_ITER= 1
DEFORM_CONSOLE_OUTPUT= YES
DEFORM_LINEAR_SOLVER_ERROR= 1E-14
DEFORM_COEFF = 1E6
DEFORM_STIFFNESS_TYPE= WALL_DISTANCE

% --------------------------- CONVERGENCE PARAMETERS --------------------------%
%
CONV_RESIDUAL_MINVAL= -12
CONV_STARTITER= 10
CONV_CAUCHY_ELEMS= 100
CONV_CAUCHY_EPS= 1E-6

% ------------------------- INPUT/OUTPUT INFORMATION --------------------------%
%
MESH_FILENAME= mesh_NACA0012_inv.su2
MESH_FORMAT= SU2
MESH_OUT_FILENAME= mesh_out.su2
SOLUTION_FILENAME= solution_flow.dat
SOLUTION_ADJ_FILENAME= solution_adj.dat
TABULAR_FORMAT= TECPLOT
CONV_FILENAME= history
RESTART_FILENAME= restart_flow.dat
RESTART_ADJ_FILENAME= restart_adj.dat
VOLUME_FILENAME= flow
VOLUME_ADJ_FILENAME= adjoint
GRAD_OBJFUNC_FILENAME= of_grad.dat
SURFACE_FILENAME= surface_flow
SURFACE_ADJ_FILENAME= surface_adjoint
OUTPUT_WRT_FREQ= 250
HISTORY_OUTPUT=(ITER, RMS_RES, AERO_COEFF, D_AERO_COEFF)
OUTPUT_FILES=(RESTART_ASCII, PARAVIEW)

% --------------------- OPTIMAL SHAPE DESIGN DEFINITION -----------------------%
%
OPT_OBJECTIVE= DRAG * 0.001
OPT_CONSTRAINT= ( LIFT > 0.327 ) * 0.001; ( MOMENT_Z > 0.0 ) * 0.001; ( AIRFOIL_THICKNESS > 0.12 ) * 0.001
DEFINITION_DV= ( 30, 1.0 | airfoil | 0, 0.05 ); ( 30, 1.0 | airfoil | 0, 0.10 ); ( 30, 1.0 | airfoil | 0, 0.15 );
