%%%%%%%%%%%%%%%%%%%%%%%%%%%%%%%%%%%%%%%%%%%%%%%%%%%%%%%%%%%%%%%%%%%%%%%%%%%%%%%%
%                                                                              %
% SU2 configuration file                                                       %
% Case description: _________________________________________________________  %
% Author: ___________________________________________________________________  %
% Institution: ______________________________________________________________  %
% Date: __________                                                             %
% File Version 8.0.0 "Harrier"                                                 %
%                                                                              %
%%%%%%%%%%%%%%%%%%%%%%%%%%%%%%%%%%%%%%%%%%%%%%%%%%%%%%%%%%%%%%%%%%%%%%%%%%%%%%%%

% ------------- DIRECT, ADJOINT, AND LINEARIZED PROBLEM DEFINITION ------------%
%
SOLVER= EULER
MATH_PROBLEM= DISCRETE_ADJOINT
%
RESTART_SOL= NO
DISCARD_INFILES= NO
SYSTEM_MEASUREMENTS= SI
REORIENT_ELEMENTS= NO
HISTORY_OUTPUT= (ITER, RMS_RES, SENSITIVITY)

% -------------------- COMPRESSIBLE FREE-STREAM DEFINITION --------------------%
%
MACH_NUMBER= 0.3
AOA= 0.0
FREESTREAM_PRESSURE= 101325.0

% ---------------------- REFERENCE VALUE DEFINITION ---------------------------%
%
REF_ORIGIN_MOMENT_X = 0.00
REF_ORIGIN_MOMENT_Y = 0.00
REF_ORIGIN_MOMENT_Z = 0.00
REF_LENGTH= 1.0
REF_AREA= 1.0
REF_DIMENSIONALIZATION= FREESTREAM_PRESS_EQ_ONE

% -------------------- BOUNDARY CONDITION DEFINITION --------------------------%
%
MARKER_EULER= (CYLINDER_DOWN, CYLINDER_UP, SIDE, WALL)
INLET_TYPE= MASS_FLOW
MARKER_INLET= ( IN, 1.22498, 102.089, 1.0, 0.0, 0.0 )
MARKER_OUTLET= ( OUT, 101325 )

% ------------------------ SURFACES IDENTIFICATION ----------------------------%
%
MARKER_PLOTTING = ( CYLINDER_DOWN, CYLINDER_UP )
MARKER_MONITORING = ( CYLINDER_DOWN, CYLINDER_UP )
MARKER_DESIGNING = ( CYLINDER_DOWN, CYLINDER_UP )
MARKER_ANALYZE = ( IN, OUT )
MARKER_ANALYZE_AVERAGE = AREA

% ------------- COMMON PARAMETERS DEFINING THE NUMERICAL METHOD ---------------%
%
NUM_METHOD_GRAD= GREEN_GAUSS
CFL_NUMBER= 10.0
CFL_ADAPT= NO
CFL_ADAPT_PARAM= ( 1.5, 0.5, 1.25, 50.0 )
OBJECTIVE_FUNCTION= LIFT

% ----------- SLOPE LIMITER AND DISSIPATION SENSOR DEFINITION -----------------%
%
LAX_SENSOR_COEFF= 0.15
JST_SENSOR_COEFF= ( 0.5, 0.02 )

% ------------------------ LINEAR SOLVER DEFINITION ---------------------------%
%
LINEAR_SOLVER= FGMRES
LINEAR_SOLVER_PREC= ILU
LINEAR_SOLVER_ILU_FILL_IN= 0
LINEAR_SOLVER_ERROR= 1E-6
LINEAR_SOLVER_ITER= 3

% -------------------- FLOW NUMERICAL METHOD DEFINITION -----------------------%
%
CONV_NUM_METHOD_FLOW= JST
TIME_DISCRE_FLOW= EULER_IMPLICIT

% ---------------- ADJOINT-FLOW NUMERICAL METHOD DEFINITION -------------------%
%
% Use an inconsistent spatial integration (primal-dual) in the discrete
% adjoint formulation. The AD will use the numerical methods in
% the ADJOINT-FLOW NUMERICAL METHOD DEFINITION section (NO, YES)
INCONSISTENT_DISC= NO
CONV_NUM_METHOD_ADJFLOW= JST
TIME_DISCRE_ADJFLOW= EULER_IMPLICIT
RELAXATION_FACTOR_ADJOINT= 0.95
CFL_REDUCTION_ADJFLOW= 0.8

% --------------------------- CONVERGENCE PARAMETERS --------------------------%
%
ITER= 100
CONV_RESIDUAL_MINVAL= -10
CONV_STARTITER= 10
CONV_CAUCHY_ELEMS= 100
CONV_CAUCHY_EPS= 1E-10

% ------------------------- INPUT/OUTPUT INFORMATION --------------------------%
%
MESH_FILENAME= cylinder3D.cgns
MESH_FORMAT= CGNS
MESH_OUT_FILENAME= mesh_out.su2
SOLUTION_FILENAME= solution_flow.dat
SOLUTION_ADJ_FILENAME= solution_adj.dat
TABULAR_FORMAT= CSV
CONV_FILENAME= history
BREAKDOWN_FILENAME= forces_breakdown.dat
RESTART_FILENAME= restart_flow.dat
RESTART_ADJ_FILENAME= restart_adj.dat
VOLUME_FILENAME= flow
VOLUME_ADJ_FILENAME= adjoint
VALUE_OBJFUNC_FILENAME= of_eval.dat
GRAD_OBJFUNC_FILENAME= of_grad.dat
SURFACE_FILENAME= surface_flow
SURFACE_ADJ_FILENAME= surface_adjoint
OUTPUT_WRT_FREQ= 2525
READ_BINARY_RESTART= YES
SCREEN_OUTPUT= (INNER_ITER, RMS_ADJ_DENSITY, RMS_ADJ_ENERGY, SENS_PRESS, SENS_AOA)
