%%%%%%%%%%%%%%%%%%%%%%%%%%%%%%%%%%%%%%%%%%%%%%%%%%%%%%%%%%%%%%%%%%%%%%%%%%%%%%%%
%                                                                              %
% SU2 configuration file                                                       %
% Case description: Axial-stage full-annulus unsteady                          %
% Author: Chuanxiang Yan                                                       %
% Institution: Tsinghua University                                             %
% Date: 2024.06.27                                                             %
% File Version 8.0.1 "Harrier"                                                 %
%                                                                              %
%%%%%%%%%%%%%%%%%%%%%%%%%%%%%%%%%%%%%%%%%%%%%%%%%%%%%%%%%%%%%%%%%%%%%%%%%%%%%%%%
%
% ----------------------- DYNAMIC MESH DEFINITION -----------------------------%
%
% Type of dynamic mesh (NONE, ROTATING_FRAME)
GRID_MOVEMENT= ROTATING_FRAME
%
%
% Angular velocity vector (rad/s) about the motion origi. Example 1250 RPM -> 130.89969389957471 rad/s
%ROTATION_RATE= 0.0 0.0 0.5 
ROTATION_RATE= 0.0 0.0 500.0
%
%
% Mesh input file
MESH_FILENAME= zone_1_FA.su2
