%%%%%%%%%%%%%%%%%%%%%%%%%%%%%%%%%%%%%%%%%%%%%%%%%%%%%%%%%%%%%%%%%%%%%%%%%%%%%%%%
%                                                                              %
% SU2 configuration file                                                       %
% Case description: Inv. inc. nozzle with pressure inlet and mass flow outlet  %
% Author: Thomas D. Economon                                                   %
% Date: 2018.11.30                                                             %
% File Version 8.0.0 "Harrier"                                                 %
%                                                                              %
%%%%%%%%%%%%%%%%%%%%%%%%%%%%%%%%%%%%%%%%%%%%%%%%%%%%%%%%%%%%%%%%%%%%%%%%%%%%%%%%

% ------------- DIRECT, ADJOINT, AND LINEARIZED PROBLEM DEFINITION ------------%
%
SOLVER= INC_EULER
MATH_PROBLEM= DIRECT
RESTART_SOL= NO

% ---------------- INCOMPRESSIBLE FLOW CONDITION DEFINITION -------------------%
%
INC_DENSITY_MODEL= CONSTANT
INC_ENERGY_EQUATION = NO
INC_DENSITY_INIT= 1.0
INC_VELOCITY_INIT= ( 1.0, 0.0, 0.0 )
INC_TEMPERATURE_INIT= 288.15
INC_INLET_TYPE= PRESSURE_INLET
INC_INLET_DAMPING= 0.1
INC_OUTLET_TYPE= MASS_FLOW_OUTLET
INC_OUTLET_DAMPING= 0.1

% ---------------------- REFERENCE VALUE DEFINITION ---------------------------%
%
REF_AREA= 0.0

% -------------------- BOUNDARY CONDITION DEFINITION --------------------------%
%
MARKER_EULER= ( sides )
MARKER_INLET= ( inlet, 288.15, 1.0, 1.0, 0.0, 0.0 )
MARKER_OUTLET= ( outlet, 1.5 )

% ------------------------ SURFACES IDENTIFICATION ----------------------------%
%
MARKER_PLOTTING = ( sides )
MARKER_MONITORING = ( sides )
MARKER_ANALYZE = ( outlet, inlet )
MARKER_ANALYZE_AVERAGE = AREA

% ------------- COMMON PARAMETERS DEFINING THE NUMERICAL METHOD ---------------%
%
NUM_METHOD_GRAD= GREEN_GAUSS
CFL_NUMBER= 15.0

% ------------------------ LINEAR SOLVER DEFINITION ---------------------------%
%
LINEAR_SOLVER= FGMRES
LINEAR_SOLVER_PREC= ILU
LINEAR_SOLVER_ILU_FILL_IN= 0
LINEAR_SOLVER_ERROR= 1E-15
LINEAR_SOLVER_ITER= 5

% -------------------------- MULTIGRID PARAMETERS -----------------------------%
%
MGLEVEL= 3
MGCYCLE= W_CYCLE
MG_PRE_SMOOTH= ( 1, 2, 3, 3 )
MG_POST_SMOOTH= ( 0, 0, 0, 0 )
MG_CORRECTION_SMOOTH= ( 0, 0, 0, 0 )
MG_DAMP_RESTRICTION= 0.95
MG_DAMP_PROLONGATION= 0.95

% ----------- SLOPE LIMITER AND DISSIPATION SENSOR DEFINITION -----------------%
%
MUSCL_FLOW= YES
SLOPE_LIMITER_FLOW= NONE

% -------------------- FLOW NUMERICAL METHOD DEFINITION -----------------------%
%
CONV_NUM_METHOD_FLOW= FDS

% --------------------------- CONVERGENCE PARAMETERS --------------------------%
%
ITER= 9999
CONV_RESIDUAL_MINVAL= -12

% ------------------------- INPUT/OUTPUT INFORMATION --------------------------%
%
MESH_FILENAME= mesh_nozzle_inv.su2
MESH_FORMAT= SU2
MESH_OUT_FILENAME= mesh_out.su2
SOLUTION_FILENAME= solution_flow.dat
TABULAR_FORMAT= CSV
CONV_FILENAME= history
BREAKDOWN_FILENAME= forces_breakdown.dat
RESTART_FILENAME= restart_flow.dat
VOLUME_FILENAME= flow
SURFACE_FILENAME= surface_flow
OUTPUT_WRT_FREQ= 50
SCREEN_OUTPUT = (INNER_ITER, RMS_PRESSURE, RMS_VELOCITY-X, LIFT, DRAG)
