%%%%%%%%%%%%%%%%%%%%%%%%%%%%%%%%%%%%%%%%%%%%%%%%%%%%%%%%%%%%%%%%%%%%%%%%%%%%%%%%
%                                                                              %
% SU2 configuration file                                                       %
% Case description: Turbulent unsteady flow around a cylinder                  %
% Author: Tim Albring                                                          %
% Institution: TU Kaiserslautern                                               %
% Date: 2016.06.14                                                             %
% File Version 8.0.0 "Harrier"                                                 %
%                                                                              %
%%%%%%%%%%%%%%%%%%%%%%%%%%%%%%%%%%%%%%%%%%%%%%%%%%%%%%%%%%%%%%%%%%%%%%%%%%%%%%%%

% ------------- DIRECT, ADJOINT, AND LINEARIZED PROBLEM DEFINITION ------------%
%
SOLVER= NAVIER_STOKES
KIND_TURB_MODEL= NONE
MATH_PROBLEM= DISCRETE_ADJOINT
RESTART_SOL= NO
READ_BINARY_RESTART= NO

TIME_DOMAIN = YES
TIME_ITER = 10

% ------------------------- UNSTEADY SIMULATION -------------------------------%
%
TIME_MARCHING= DUAL_TIME_STEPPING-2ND_ORDER
TIME_STEP= 0.0015
MAX_TIME= 3.75
INNER_ITER= 30
UNST_ADJOINT_ITER= 10
ITER_AVERAGE_OBJ= 5
%
%%  Windowed output time averaging
WINDOW_START_ITER = 5
%
% Window used for reverse sweep and direct run. Options (SQUARE, HANN, HANN_SQUARE, BUMP) Square is default. 
WINDOW_FUNCTION = HANN

% ----------- COMPRESSIBLE AND INCOMPRESSIBLE FREE-STREAM DEFINITION ----------%
%
MACH_NUMBER= 0.1
AOA= 0.0
SIDESLIP_ANGLE= 0.0
FREESTREAM_TEMPERATURE= 288.15
REYNOLDS_NUMBER= 100.0
REYNOLDS_LENGTH= 1.0

% ---------------------- REFERENCE VALUE DEFINITION ---------------------------%
%
REF_ORIGIN_MOMENT_X = 0.00
REF_ORIGIN_MOMENT_Y = 0.00
REF_ORIGIN_MOMENT_Z = 0.00
REF_LENGTH= 1.0
REF_AREA= 1.0

% -------------------- BOUNDARY CONDITION DEFINITION --------------------------%
%
MARKER_HEATFLUX= ( Cylinder, 0.0 )
MARKER_FAR= ( Farfield )
MARKER_PLOTTING= ( Cylinder )
MARKER_MONITORING= ( Cylinder )

% ------------- COMMON PARAMETERS DEFINING THE NUMERICAL METHOD ---------------%
%
NUM_METHOD_GRAD= WEIGHTED_LEAST_SQUARES
CFL_NUMBER= 10.0
OBJECTIVE_FUNCTION=DRAG

% ------------------------ LINEAR SOLVER DEFINITION ---------------------------%
%
LINEAR_SOLVER= FGMRES
LINEAR_SOLVER_PREC= LU_SGS
LINEAR_SOLVER_ERROR= 1E-6
LINEAR_SOLVER_ITER= 5

% -------------------- FLOW NUMERICAL METHOD DEFINITION -----------------------%
%
CONV_NUM_METHOD_FLOW= ROE
MUSCL_FLOW= YES
VENKAT_LIMITER_COEFF= 1.0
JST_SENSOR_COEFF= ( 0.5, 0.02 )
TIME_DISCRE_FLOW= EULER_IMPLICIT

% -------------------- TURBULENT NUMERICAL METHOD DEFINITION ------------------%
%
CONV_NUM_METHOD_TURB= SCALAR_UPWIND
MUSCL_TURB= NO
SLOPE_LIMITER_TURB= VENKATAKRISHNAN
TIME_DISCRE_TURB= EULER_IMPLICIT

% --------------------------- CONVERGENCE PARAMETERS --------------------------%
%
CONV_RESIDUAL_MINVAL= -16
CONV_STARTITER= 10
CONV_CAUCHY_ELEMS= 100
CONV_CAUCHY_EPS= 1E-5
WINDOW_CAUCHY_CRIT = YES
CONV_WINDOW_FIELD = TAVG_DRAG
CONV_WINDOW_STARTITER = 0
CONV_WINDOW_CAUCHY_EPS = 1
CONV_WINDOW_CAUCHY_ELEMS = 2

% ------------------------- INPUT/OUTPUT INFORMATION --------------------------%
%
MESH_FILENAME= mesh_cylinder.su2
MESH_FORMAT= SU2
SOLUTION_FILENAME= solution_flow.dat
RESTART_ADJ_FILENAME= restart_adj.dat
SOLUTION_ADJ_FILENAME= solution_adj.dat
SCREEN_OUTPUT= (TIME_ITER, INNER_ITER, RMS_ADJ_DENSITY)
HISTORY_OUTPUT = (ITER, TAVG_AERO_COEFF, D_TAVG_AERO_COEFF, AERO_COEFF)
OUTPUT_FILES = (RESTART_ASCII)

% ------------------------ GRID DEFORMATION PARAMETERS ------------------------%
%
DEFORM_LINEAR_SOLVER= FGMRES
DEFORM_LINEAR_SOLVER_ITER= 1000
DEFORM_NONLINEAR_ITER= 1
DEFORM_LINEAR_SOLVER_ERROR= 1E-14
DEFORM_STIFFNESS_TYPE= INVERSE_VOLUME
DEFORM_CONSOLE_OUTPUT= YES

% --------------------- OPTIMAL SHAPE DESIGN DEFINITION -----------------------%
%
DEFINITION_DV= ( 30, 1.0 | Cylinder | 0, 0.05 ); ( 30, 1.0 | Cylinder | 0, 0.10 ); ( 30, 1.0 | Cylinder | 0, 0.15 ); ( 30, 1.0 | Cylinder | 0, 0.20 ); ( 30, 1.0 | Cylinder | 0, 0.25 ); ( 30, 1.0 | Cylinder | 0, 0.30 ); ( 30, 1.0 | Cylinder | 0, 0.35 ); ( 30, 1.0 | Cylinder | 0, 0.40 ); ( 30, 1.0 | Cylinder | 0, 0.45 ); ( 30, 1.0 | Cylinder | 0, 0.50 ); ( 30, 1.0 | Cylinder | 0, 0.55 ); ( 30, 1.0 | Cylinder | 0, 0.60 ); ( 30, 1.0 | Cylinder | 0, 0.65 ); ( 30, 1.0 | Cylinder | 0, 0.70 ); ( 30, 1.0 | Cylinder | 0, 0.75 ); ( 30, 1.0 | Cylinder | 0, 0.80 ); ( 30, 1.0 | Cylinder | 0, 0.85 ); ( 30, 1.0 | Cylinder | 0, 0.90 ); ( 30, 1.0 | Cylinder | 0, 0.95 ); ( 30, 1.0 | Cylinder | 1, 0.05 ); ( 30, 1.0 | Cylinder | 1, 0.10 ); ( 30, 1.0 | Cylinder | 1, 0.15 ); ( 30, 1.0 | Cylinder | 1, 0.20 ); ( 30, 1.0 | Cylinder | 1, 0.25 ); ( 30, 1.0 | Cylinder | 1, 0.30 ); ( 30, 1.0 | Cylinder | 1, 0.35 ); ( 30, 1.0 | Cylinder | 1, 0.40 ); ( 30, 1.0 | Cylinder | 1, 0.45 ); ( 30, 1.0 | Cylinder | 1, 0.50 ); ( 30, 1.0 | Cylinder | 1, 0.55 ); ( 30, 1.0 | Cylinder | 1, 0.60 ); ( 30, 1.0 | Cylinder | 1, 0.65 ); ( 30, 1.0 | Cylinder | 1, 0.70 ); ( 30, 1.0 | Cylinder | 1, 0.75 ); ( 30, 1.0 | Cylinder | 1, 0.80 ); ( 30, 1.0 | Cylinder | 1, 0.85 ); ( 30, 1.0 | Cylinder | 1, 0.90 ); ( 30, 1.0 | Cylinder | 1, 0.95 )
