%%%%%%%%%%%%%%%%%%%%%%%%%%%%%%%%%%%%%%%%%%%%%%%%%%%%%%%%%%%%%%%%%%%%%%%%%%%%%%%%
%                                                                              %
% SU2 configuration file                                                       %
% Case description: Dynamic 2D Beam                                            %
% Author: Ruben Sanchez Fernandez                                              %
% Institution: Imperial College London                                         %
% Date: 2015.05.15                                                             %
% File Version 4.0.1 "Cardinal"                                                %
%                                                                              %
%%%%%%%%%%%%%%%%%%%%%%%%%%%%%%%%%%%%%%%%%%%%%%%%%%%%%%%%%%%%%%%%%%%%%%%%%%%%%%%%

% ------------- DIRECT, ADJOINT, AND LINEARIZED PROBLEM DEFINITION ------------%
%
% Physical governing equations (EULER, NAVIER_STOKES,
%                               TNE2_EULER, TNE2_NAVIER_STOKES,
%                               WAVE_EQUATION, HEAT_EQUATION, LINEAR_ELASTICITY,
%                               POISSON_EQUATION)                           
PHYSICAL_PROBLEM= LINEAR_ELASTICITY
%
% Mathematical problem (DIRECT, CONTINUOUS_ADJOINT)
MATH_PROBLEM= DIRECT

% --------------------------- MATERIAL CONSTANTS ------------------------------%
%
% Value of the Elasticity modulus
ELASTICITY_MODULUS=3E9
%
% Value of the Poisson ratio
POISSON_RATIO=0.3
%
% Value of the material density
MATERIAL_DENSITY=7854
%
% Elasticity formulation for 2D problems
FORMULATION_ELASTICITY_2D = PLANE_STRESS

% ------------------------- UNSTEADY SIMULATION -------------------------------%
%
% Unsteady simulation (NO, TIME_STEPPING, DUAL_TIME_STEPPING-1ST_ORDER, 
%                      DUAL_TIME_STEPPING-2ND_ORDER)
UNSTEADY_SIMULATION= NO
%
% -------------------------- DYNAMIC SIMULATION -------------------------------%
%
% Dynamic structural analysis
DYNAMIC_ANALYSYS= YES
% Time discretization
TIME_DISCRE_FEA= NEWMARK_IMPLICIT
% Ramp Load
RAMP_LOADING=YES
% Ramp Time
RAMP_TIME=5
% Dynamic analysis time step
DYN_TIMESTEP= 0.1
% Dynamic analysis total time
DYN_TIME= 6.1
% Number of total iterations
EXT_ITER=61
% Newmark parameters
NEWMARK_ALPHA=0.3
NEWMARK_DELTA=0.55

% -------------------- BOUNDARY CONDITION DEFINITION --------------------------%
%
% Clamped boundary marker(s) (NONE = no marker)
% Format: ( clamped marker )
MARKER_CLAMPED = ( left , right )
%
% Load boundary marker(s) (NONE = no marker)
% Format: ( load marker, force value normal to the surface, ... )
MARKER_NORMAL_LOAD= ( lower, 0)
%
% Load boundary marker(s) (NONE = no marker)
% Format: ( load marker, force value, multiplier, direction of the load ... )
MARKER_LOAD= ( upper, 1, 1000, 0, -1, 0)
%
% Load boundary marker(s) (NONE = no marker)
% Format: ( load marker, amplitude (N), frequency (Hz), direction of the load ... )
% MARKER_SINE_LOAD= (upper, 1000, 1, 0, -1, 0)


% ------------------------ LINEAR SOLVER DEFINITION ---------------------------%
%
% Linear solver for the implicit formulation (BCGSTAB, FGMRES)
LINEAR_SOLVER= FGMRES
%
% Preconditioner of the Krylov linear solver (JACOBI, LINELET, LU_SGS)
LINEAR_SOLVER_PREC= LU_SGS
%
% Min error of the linear solver for the implicit formulation
LINEAR_SOLVER_ERROR= 1E-8
%
% Max number of iterations of the linear solver for the implicit formulation
LINEAR_SOLVER_ITER= 1000

% ------------------------- INPUT/OUTPUT INFORMATION --------------------------%
%
% Mesh input file
MESH_FILENAME= meshBeam_2d.su2
%
% Mesh input file format (SU2, CGNS, NETCDF_ASCII)
MESH_FORMAT= SU2
%
% Output file format (PARAVIEW, TECPLOT)
OUTPUT_FORMAT= PARAVIEW
%
% Output file name (PARAVIEW, TECPLOT)
VOLUME_STRUCTURE_FILENAME= beam2d
%
% Output file name (PARAVIEW, TECPLOT)
SURFACE_STRUCTURE_FILENAME= surf_beam2d
%
% Output file convergence history (w/o extension) 
CONV_FILENAME= history_Beam
%
% Writing solution file frequency
WRT_SOL_FREQ= 60
