%%%%%%%%%%%%%%%%%%%%%%%%%%%%%%%%%%%%%%%%%%%%%%%%%%%%%%%%%%%%%%%%%%%%%%%%%%%%%%%%
% SU2 configuration file                                                       %
% Case description: Dynamic 2D Beam                                            %
% Author: Ruben Sanchez Fernandez                                              %
% Institution: Imperial College London                                         %
% Date: 2016.02.01                                                             %
% File Version 6.2.0 "Falcon"                                                %
%%%%%%%%%%%%%%%%%%%%%%%%%%%%%%%%%%%%%%%%%%%%%%%%%%%%%%%%%%%%%%%%%%%%%%%%%%%%%%%%
                    
PHYSICAL_PROBLEM= ELASTICITY
MATH_PROBLEM= DIRECT
GEOMETRIC_CONDITIONS= LARGE_DEFORMATIONS
MATERIAL_MODEL= NEO_HOOKEAN
MESH_FILENAME= meshBeam_2d.su2
RESTART_SOL= YES
WRT_BINARY_RESTART= NO
READ_BINARY_RESTART= NO
DYN_RESTART_ITER= 1
NONLINEAR_FEM_INT_ITER = 10
RESIDUAL_FEM_UTOL = -5.0
RESIDUAL_FEM_RTOL = -5.0
RESIDUAL_FEM_ETOL = -5.0
ELASTICITY_MODULUS=3E7
POISSON_RATIO=0.3
MATERIAL_DENSITY=7854
FORMULATION_ELASTICITY_2D = PLANE_STRESS
DYNAMIC_ANALYSIS= YES
DYN_TIMESTEP= 0.01
DYN_TIME= 0.1
EXT_ITER=2
TIME_DISCRE_FEA= NEWMARK_IMPLICIT
NEWMARK_BETA=0.2601
NEWMARK_GAMMA=0.52
MARKER_CLAMPED = ( left , right )
MARKER_PRESSURE= ( lower, 0)
MARKER_LOAD= ( upper, 1, 1000, 0, -1, 0)
LINEAR_SOLVER= FGMRES
LINEAR_SOLVER_PREC= LU_SGS
LINEAR_SOLVER_ERROR= 1E-8
LINEAR_SOLVER_ITER= 1000
MESH_FORMAT= SU2
OUTPUT_FORMAT= PARAVIEW
WRT_SRF_SOL = NO
VOLUME_STRUCTURE_FILENAME= beam
RESTART_STRUCTURE_FILENAME= restart_beam.dat
SOLUTION_STRUCTURE_FILENAME= solution_beam.dat
WRT_SOL_FREQ= 1
WRT_SOL_FREQ_DUALTIME= 1
WRT_CON_FREQ= 1
WRT_CON_FREQ_DUALTIME= 1
