%%%%%%%%%%%%%%%%%%%%%%%%%%%%%%%%%%%%%%%%%%%%%%%%%%%%%%%%%%%%%%%%%%%%%%%%%%%%%%%%
% SU2 configuration file                                                       %
% Case description: Dynamic 2D Beam                                            %
% Author: Ruben Sanchez Fernandez                                              %
% Institution: Imperial College London                                         %
% Date: 2016.02.01                                                             %
% File Version 8.0.0 "Harrier"                                                 %
%%%%%%%%%%%%%%%%%%%%%%%%%%%%%%%%%%%%%%%%%%%%%%%%%%%%%%%%%%%%%%%%%%%%%%%%%%%%%%%%

SOLVER= ELASTICITY
MATH_PROBLEM= DIRECT
GEOMETRIC_CONDITIONS= LARGE_DEFORMATIONS
MATERIAL_MODEL= NEO_HOOKEAN
MESH_FILENAME= meshBeam_2d.su2
RESTART_SOL= YES
READ_BINARY_RESTART= NO
RESTART_ITER= 1
ELASTICITY_MODULUS=3E7
POISSON_RATIO=0.3
MATERIAL_DENSITY=7854
FORMULATION_ELASTICITY_2D= PLANE_STRESS
TIME_DOMAIN=YES
TIME_STEP=0.01
MAX_TIME= 0.1
INNER_ITER=10
TIME_ITER=7
TIME_DISCRE_FEA= NEWMARK_IMPLICIT
NEWMARK_BETA=0.2601
NEWMARK_GAMMA=0.52
MARKER_CLAMPED= ( left , right )
MARKER_PRESSURE= ( lower, 0 )
MARKER_LOAD= ( upper, 1, 1000, 0, -1, 0 )
LINEAR_SOLVER= CONJUGATE_GRADIENT
LINEAR_SOLVER_PREC= ILU
LINEAR_SOLVER_ERROR= 1E-6
LINEAR_SOLVER_ITER= 100
MESH_FORMAT= SU2
TABULAR_FORMAT= CSV
VOLUME_FILENAME= beam
RESTART_FILENAME= restart_beam.dat
SOLUTION_FILENAME= solution_beam.dat
OUTPUT_WRT_FREQ= 1
OUTPUT_FILES= RESTART_ASCII, PARAVIEW
