%%%%%%%%%%%%%%%%%%%%%%%%%%%%%%%%%%%%%%%%%%%%%%%%%%%%%%%%%%%%%%%%%%%%%%%%%%%%%%%%
%                                                                              %
% SU2 configuration file                                                       %
% Case description: Actuator Disk example                                      %
% Author: Francisco Palacios                                                   %
% Institution: Stanford University                                             %
% Date: 2014.06.01                                                             %
% File Version 4.2.0 "Cardinal"                                                %
%                                                                              %
%%%%%%%%%%%%%%%%%%%%%%%%%%%%%%%%%%%%%%%%%%%%%%%%%%%%%%%%%%%%%%%%%%%%%%%%%%%%%%%%

% ------------- DIRECT, ADJOINT, AND LINEARIZED PROBLEM DEFINITION ------------%
%
% Physical governing equations (EULER, NAVIER_STOKES,
%                               WAVE_EQUATION, HEAT_EQUATION, FEM_ELASTICITY,
%                               POISSON_EQUATION)
PHYSICAL_PROBLEM= EULER
%
% Mathematical problem (DIRECT, CONTINUOUS_ADJOINT)
MATH_PROBLEM= DIRECT
%
% Restart solution (NO, YES)
RESTART_SOL= NO

% ----------- COMPRESSIBLE AND INCOMPRESSIBLE FREE-STREAM DEFINITION ----------%
%
% Mach number (non-dimensional, based on the free-stream values)
MACH_NUMBER= 0.5
%
% Angle of attack (degrees)
AoA= 0.0
%
% Free-stream pressure (101325.0 N/m^2 by default, only Euler flows)  
FREESTREAM_PRESSURE= 101325.0
%
% Free-stream temperature (288.15 K by default)
FREESTREAM_TEMPERATURE= 288.15

% ---------------------- REFERENCE VALUE DEFINITION ---------------------------%
%
% Reference origin for moment computation
REF_ORIGIN_MOMENT_X = 0.25
REF_ORIGIN_MOMENT_Y = 0.00
REF_ORIGIN_MOMENT_Z = 0.00
%
% Reference length for pitching, rolling, and yawing non-dimensional moment
REF_LENGTH_MOMENT= 1.0
%
% Reference area for force coefficients (0 implies automatic calculation)
REF_AREA= 1.0

% ----------------------- BOUNDARY CONDITION DEFINITION -----------------------%
%
% Actuator disk boundary marker(s) (NONE = no marker)
% Format: ( inlet face marker, outlet face marker,
% rotation_angle_x-axis, rotation_angle_y-axis, rotation_angle_z-axis, 
% root radius, tip radius, pressure jump, temperature jump, rev/min, 
% uniform(0)/linear(1) distribution, ... )
MARKER_ACTDISK = ( disk_in, disk_out, 0.1104127, 9.743505, 14.09530, 0.0, 1.96, 1000, 10, 0.0, 0 )
%
% Marker of the far field (0 = no marker)
% MARKER_FAR= ( inlet, outlet, side )
%
% Inlet boundary type (TOTAL_CONDITIONS, MASS_FLOW)
INLET_TYPE= TOTAL_CONDITIONS
%
% Inlet boundary marker(s) with the following formats (NONE = no marker) 
% Total Conditions: (inlet marker, total temp, total pressure, flow_direction_x, 
%           flow_direction_y, flow_direction_z, ... ) where flow_direction is
%           a unit vector.
MARKER_INLET= ( inlet, 288.15, 120193, 1.0, 0.0, 0.0 )
%
%
% Outlet boundary marker(s) (NONE = no marker)
% Format: ( outlet marker, back pressure (static), ... )
MARKER_OUTLET= ( side, 101325.0, outlet, 101325.0 )
%
% Marker of the surface which is going to be plotted or designed
MARKER_PLOTTING= ( disk_in )
%
% Marker of the surface where the functional (Cd, Cl, etc.) will be evaluated
MARKER_MONITORING= ( disk_in )

% ------------- COMMON PARAMETERS TO DEFINE THE NUMERICAL METHOD --------------%
% Numerical method for spatial gradients (GREEN_GAUSS, WEIGHTED_LEAST_SQUARES)
NUM_METHOD_GRAD= GREEN_GAUSS
%
% Courant-Friedrichs-Lewy condition of the finest grid
CFL_NUMBER= 10.0
%
% Adaptive CFL number (NO, YES)
CFL_ADAPT= NO
%
% Parameters of the adaptive CFL number (factor down, factor up, CFL min value,
%                                        CFL max value )
CFL_ADAPT_PARAM= ( 1.5, 0.5, 1.0, 100.0 )
%
% Runge-Kutta alpha coefficients
RK_ALPHA_COEFF= ( 0.66667, 0.66667, 1.000000 )
%
% Number of total iterations
EXT_ITER= 5000
%
% Linear solver for the implicit formulation (BCGSTAB, FGMRES)
LINEAR_SOLVER= FGMRES
%
% Min error of the linear solver for the implicit formulation
LINEAR_SOLVER_ERROR= 1E-6
%
% Max number of iterations of the linear solver for the implicit formulation
LINEAR_SOLVER_ITER= 100

% -------------------------- MULTIGRID PARAMETERS -----------------------------%
% Multi-Grid Levels (0 = no multi-grid)
MGLEVEL= 3
%
% Multi-grid cycle (V_CYCLE, W_CYCLE, FULLMG_CYCLE)
MGCYCLE= V_CYCLE
%
% Multi-Grid PreSmoothing Level
MG_PRE_SMOOTH= ( 1, 2, 2, 2 )
%
% Multi-Grid PostSmoothing Level
MG_POST_SMOOTH= ( 0, 0, 0, 0 )
%
% Jacobi implicit smoothing of the correction
MG_CORRECTION_SMOOTH= ( 0, 0, 0, 0 )
%
% Damping factor for the residual restriction
MG_DAMP_RESTRICTION= 0.75
%
% Damping factor for the correction prolongation
MG_DAMP_PROLONGATION= 0.75

% ----------------------- SLOPE LIMITER DEFINITION ----------------------------%
%
% Reference element length for computing the slope and sharp edges 
%                              limiters (0.1 m, 5.0 in by default)
REF_ELEM_LENGTH= 0.1
%
% Coefficient for the limiter
LIMITER_COEFF= 0.1
%
% Freeze the value of the limiter after a number of iterations
LIMITER_ITER= 999999
%
% Coefficient for the sharp edges limiter
SHARP_EDGES_COEFF= 3.0
%
% Reference coefficient (sensitivity) for detecting sharp edges.
REF_SHARP_EDGES= 3.0
%
% Remove sharp edges from the sensitivity evaluation (NO, YES)
SENS_REMOVE_SHARP= NO

% --------------------- FLOW NUMERICAL METHOD DEFINITION ----------------------%
% Convective numerical method (JST, CUSP, LAX-FRIEDRICH, ROE-1ST_ORDER, 
%                              ROE-2ND_ORDER)
CONV_NUM_METHOD_FLOW= ROE
%
% Spatial numerical order integration (1ST_ORDER, 2ND_ORDER, 2ND_ORDER_LIMITER)
SPATIAL_ORDER_FLOW= 2ND_ORDER
%
% 1st, 2nd and 4th order artificial dissipation coefficients
AD_COEFF_FLOW= ( 0.15, 0.5, 0.02 )
%
% Time discretization (RUNGE-KUTTA_EXPLICIT, EULER_IMPLICIT, EULER_EXPLICIT)
TIME_DISCRE_FLOW= EULER_IMPLICIT
%
% Relaxation coefficient
RELAXATION_FACTOR_FLOW= 1.0

% ----------------------- GEOMETRY EVALUATION PARAMETERS ----------------------%
%
% Location (coordinate) of the airfoil sections (MinValue, MaxValue)
GEO_LOCATION_SECTIONS = (-1.0, 1.0)
%
% Geometrical evaluation mode (FUNCTION, GRADIENT)
GEO_MODE= FUNCTION

% ------------------------- GRID ADAPTATION STRATEGY --------------------------%
%
% Percentage of new elements (% of the original number of elements)
NEW_ELEMS= 15
%
% Kind of grid adaptation (NONE, FULL, FULL_FLOW, GRAD_FLOW, FULL_ADJOINT,
%                          GRAD_ADJOINT, GRAD_FLOW_ADJ, ROBUST,
%                          FULL_LINEAR, COMPUTABLE, COMPUTABLE_ROBUST,
%                          REMAINING, WAKE, HORIZONTAL_PLANE)
KIND_ADAPT= FULL
%
% Scale factor for the dual volume
DUALVOL_POWER= 0.5

% ----------------------- DESIGN VARIABLE PARAMETERS --------------------------%
%
% Kind of deformation (FFD_SETTING, FFD_CONTROL_POINT_2D, FFD_CAMBER_2D, FFD_THICKNESS_2D,
%                      HICKS_HENNE, COSINE_BUMP, PARABOLIC,
%                      NACA_4DIGITS, DISPLACEMENT, ROTATION, FFD_CONTROL_POINT, 
%                      FFD_DIHEDRAL_ANGLE, FFD_TWIST_ANGLE, FFD_ROTATION,
%                      FFD_CAMBER, FFD_THICKNESS, FFD_VOLUME, SURFACE_FILE)
DV_KIND= FFD_SETTING
%
% Marker of the surface in which we are going apply the shape deformation
DV_MARKER= ( airfoil )
%
% Parameters of the shape deformation 
% - FFD_CONTROL_POINT_2D ( FFD_Box_ID, i_Ind, j_Ind, x_Disp, y_Disp )
% - FFD_CAMBER_2D ( FFD_Box_ID, i_Ind )
% - FFD_THICKNESS_2D ( FFD_Box_ID, i_Ind )
% - HICKS_HENNE ( Lower Surface (0)/Upper Surface (1)/Only one Surface (2), x_Loc )
% - COSINE_BUMP ( Lower Surface (0)/Upper Surface (1)/Only one Surface (2), x_Loc, x_Size )
% - FOURIER ( Lower Surface (0)/Upper Surface (1)/Only one Surface (2), index, cos(0)/sin(1) )
% - SPHERICAL ( ControlPoint_Index, Theta_Disp, R_Disp )
% - NACA_4DIGITS ( 1st digit, 2nd digit, 3rd and 4th digit )
% - PARABOLIC ( Center, Thickness )
% - DISPLACEMENT ( x_Disp, y_Disp, z_Disp )
% - ROTATION ( x_Orig, y_Orig, z_Orig, x_End, y_End, z_End )
% - OBSTACLE ( Center, Bump size )
% - FFD_CONTROL_POINT ( FFD_Box_ID, i_Ind, j_Ind, k_Ind, x_Disp, y_Disp, z_Disp )
% - FFD_DIHEDRAL_ANGLE ( FFD_Box_ID, x_Orig, y_Orig, z_Orig, x_End, y_End, z_End )
% - FFD_TWIST_ANGLE ( FFD_Box_ID, x_Orig, y_Orig, z_Orig, x_End, y_End, z_End )
% - FFD_ROTATION ( FFD_Box_ID, x_Orig, y_Orig, z_Orig, x_End, y_End, z_End )
% - FFD_CAMBER ( FFD_Box_ID, i_Ind, j_Ind )
% - FFD_THICKNESS ( FFD_Box_ID, i_Ind, j_Ind )
% - FFD_VOLUME ( FFD_Box_ID, i_Ind, j_Ind )
DV_PARAM= ( 0, 0.5 )
%
% Value of the shape deformation
DV_VALUE= 0.1
%
% Surface deformation input filename (SURFACE_FILE DV only)
MOTION_FILENAME= mesh_motion.dat

% ------------------------ GRID DEFORMATION PARAMETERS ------------------------%
%
% Number of smoothing iterations for FEA mesh deformation
DEFORM_LINEAR_ITER= 500
%
% Number of nonlinear deformation iterations (surface deformation increments)
DEFORM_NONLINEAR_ITER= 1
%
% Print the residuals during mesh deformation to the console (YES, NO)
DEFORM_CONSOLE_OUTPUT= YES
%
% Factor to multiply smallest cell volume for deform tolerance (0.001 default)
DEFORM_TOL_FACTOR = 0.001
%
% Type of element stiffness imposed for FEA mesh deformation (INVERSE_VOLUME, 
%                                          WALL_DISTANCE, CONSTANT_STIFFNESS)
DEFORM_STIFFNESS_TYPE= INVERSE_VOLUME
%
% Visualize the deformation (NO, YES)
VISUALIZE_DEFORMATION= YES
%
% Hold the grid fixed in a region (NO, YES)
HOLD_GRID_FIXED= NO
%
% Coordinates of the box where the grid will be deformed (Xmin, Ymin, Zmin, 
%                                                         Xmax, Ymax, Zmax)
HOLD_GRID_FIXED_COORD= ( -0.5, -0.49, 0.0, 2.5, 0.49, 0.0 )

% --------------------------- CONVERGENCE PARAMETERS --------------------------%
% Convergence criteria (CAUCHY, RESIDUAL)
%
CONV_CRITERIA= RESIDUAL
%
% Residual reduction (order of magnitude with respect to the initial value)
RESIDUAL_REDUCTION= 6
%
% Min value of the residual (log10 of the residual)
RESIDUAL_MINVAL= -9
%
% Start Cauchy criteria at iteration number
STARTCONV_ITER= 10
%
% Number of elements to apply the criteria
CAUCHY_ELEMS= 100
%
% Epsilon to control the series convergence
CAUCHY_EPS= 1E-6
%
% Function to apply the criteria (LIFT, DRAG, SENS_GEOMETRY, SENS_MACH,
%                                 DELTA_LIFT, DELTA_DRAG)
CAUCHY_FUNC_FLOW= DRAG

% ------------------------- INPUT/OUTPUT INFORMATION --------------------------%
%
% Mesh input file
MESH_FILENAME= ActuatorDisk_I.su2
%
% Mesh input file format (SU2, CGNS, NETCDF_ASCII)
MESH_FORMAT= SU2
%
% Mesh output file
MESH_OUT_FILENAME= mesh_out.su2
%
% Restart flow input file
SOLUTION_FLOW_FILENAME= solution_flow.dat
%
% Restart adjoint input file
SOLUTION_ADJ_FILENAME= solution_adj.dat
%
% Output file format (PARAVIEW, TECPLOT)
OUTPUT_FORMAT= TECPLOT
%
% Output file convergence history (w/o extension) 
CONV_FILENAME= history
%
% Output file restart flow
RESTART_FLOW_FILENAME= restart_flow.dat
%
% Output file restart adjoint
RESTART_ADJ_FILENAME= restart_adj.dat
%
% Output file flow (w/o extension) variables
VOLUME_FLOW_FILENAME= flow
%
% Output file adjoint (w/o extension) variables
VOLUME_ADJ_FILENAME= adjoint
%
% Output Objective function gradient (using continuous adjoint)
GRAD_OBJFUNC_FILENAME= of_grad.dat
%
% Output file surface flow coefficient (w/o extension)
SURFACE_FLOW_FILENAME= surface_flow
%
% Output file surface adjoint coefficient (w/o extension)
SURFACE_ADJ_FILENAME= surface_adjoint
%
% Writing solution file frequency
WRT_SOL_FREQ= 100
%
% Writing convergence history frequency
WRT_CON_FREQ= 1

% --------------------- OPTIMAL SHAPE DESIGN DEFINITION -----------------------%
% Available flow based objective functions or constraint functions
%    DRAG, LIFT, SIDEFORCE, EFFICIENCY,
%    FORCE_X, FORCE_Y, FORCE_Z,
%    MOMENT_X, MOMENT_Y, MOMENT_Z,
%    THRUST, TORQUE, FIGURE_OF_MERIT,
%    EQUIVALENT_AREA, NEARFIELD_PRESSURE,
%    FREE_SURFACE
%
% Available geometrical based objective functions or constraint functions
%    MAX_THICKNESS, 1/4_THICKNESS, 1/2_THICKNESS, 3/4_THICKNESS, AREA, AOA, CHORD, 
%    MAX_THICKNESS_SEC1, MAX_THICKNESS_SEC2, MAX_THICKNESS_SEC3, MAX_THICKNESS_SEC4, MAX_THICKNESS_SEC5, 
%    1/4_THICKNESS_SEC1, 1/4_THICKNESS_SEC2, 1/4_THICKNESS_SEC3, 1/4_THICKNESS_SEC4, 1/4_THICKNESS_SEC5, 
%    1/2_THICKNESS_SEC1, 1/2_THICKNESS_SEC2, 1/2_THICKNESS_SEC3, 1/2_THICKNESS_SEC4, 1/2_THICKNESS_SEC5, 
%    3/4_THICKNESS_SEC1, 3/4_THICKNESS_SEC2, 3/4_THICKNESS_SEC3, 3/4_THICKNESS_SEC4, 3/4_THICKNESS_SEC5, 
%    AREA_SEC1, AREA_SEC2, AREA_SEC3, AREA_SEC4, AREA_SEC5, 
%    AOA_SEC1, AOA_SEC2, AOA_SEC3, AOA_SEC4, AOA_SEC5, 
%    CHORD_SEC1, CHORD_SEC2, CHORD_SEC3, CHORD_SEC4, CHORD_SEC5
%
% Available design variables
%    HICKS_HENNE 	(  1, Scale | Mark. List | Lower(0)/Upper(1) side, x_Loc )
%    COSINE_BUMP	(  2, Scale | Mark. List | Lower(0)/Upper(1) side, x_Loc, x_Size )
%    SPHERICAL		(  3, Scale | Mark. List | ControlPoint_Index, Theta_Disp, R_Disp )
%    NACA_4DIGITS	(  4, Scale | Mark. List | 1st digit, 2nd digit, 3rd and 4th digit )
%    DISPLACEMENT	(  5, Scale | Mark. List | x_Disp, y_Disp, z_Disp )
%    ROTATION		(  6, Scale | Mark. List | x_Axis, y_Axis, z_Axis, x_Turn, y_Turn, z_Turn )
%    FFD_CONTROL_POINT	(  7, Scale | Mark. List | FFD_Box_ID, i_Ind, j_Ind, k_Ind, x_Mov, y_Mov, z_Mov )
%    FFD_DIHEDRAL_ANGLE	(  8, Scale | Mark. List | FFD_Box_ID, x_Orig, y_Orig, z_Orig, x_End, y_End, z_End )
%    FFD_TWIST_ANGLE 	(  9, Scale | Mark. List | FFD_Box_ID, x_Orig, y_Orig, z_Orig, x_End, y_End, z_End )
%    FFD_ROTATION 	( 10, Scale | Mark. List | FFD_Box_ID, x_Orig, y_Orig, z_Orig, x_End, y_End, z_End )
%    FFD_CAMBER 	( 11, Scale | Mark. List | FFD_Box_ID, i_Ind, j_Ind )
%    FFD_THICKNESS 	( 12, Scale | Mark. List | FFD_Box_ID, i_Ind, j_Ind )
%    FFD_VOLUME 	( 13, Scale | Mark. List | FFD_Box_ID, i_Ind, j_Ind )
%    FOURIER 		( 14, Scale | Mark. List | Lower(0)/Upper(1) side, index, cos(0)/sin(1) )
%    FFD_CONTROL_POINT_2D (  15, Scale | Mark. List | FFD_Box_ID, i_Ind, j_Ind, x_Mov, y_Mov )
%    FFD_CAMBER_2D 	( 16, Scale | Mark. List | FFD_Box_ID, i_Ind )
%    FFD_THICKNESS_2D 	( 17, Scale | Mark. List | FFD_Box_ID, i_Ind )
%
% Optimization objective function with scaling factor
% ex= Objective * Scale
OPT_OBJECTIVE= INVERSE_DESIGN_PRESSURE * 0.01
%
% Optimization constraint functions with scaling factors, separated by semicolons
% ex= (Objective = Value ) * Scale, use '>','<','='
OPT_CONSTRAINT= NONE
%
% Optimization design variables, separated by semicolons
%DEFINITION_DV= ( 1, 1.0 | airfoil | 0, 0.05 ); ( 1, 1.0 | airfoil | 0, 0.10 ); ( 1, 1.0 | airfoil | 0, 0.15 ); ( 1, 1.0 | airfoil | 0, 0.20 ); ( 1, 1.0 | airfoil | 0, 0.25 ); ( 1, 1.0 | airfoil | 0, 0.30 ); ( 1, 1.0 | airfoil | 0, 0.35 ); ( 1, 1.0 | airfoil | 0, 0.40 ); ( 1, 1.0 | airfoil | 0, 0.45 ); ( 1, 1.0 | airfoil | 0, 0.50 ); ( 1, 1.0 | airfoil | 0, 0.55 ); ( 1, 1.0 | airfoil | 0, 0.60 ); ( 1, 1.0 | airfoil | 0, 0.65 ); ( 1, 1.0 | airfoil | 0, 0.70 ); ( 1, 1.0 | airfoil | 0, 0.75 ); ( 1, 1.0 | airfoil | 0, 0.80 ); ( 1, 1.0 | airfoil | 0, 0.85 ); ( 1, 1.0 | airfoil | 0, 0.90 ); ( 1, 1.0 | airfoil | 0, 0.95 ); ( 1, 1.0 | airfoil | 1, 0.05 ); ( 1, 1.0 | airfoil | 1, 0.10 ); ( 1, 1.0 | airfoil | 1, 0.15 ); ( 1, 1.0 | airfoil | 1, 0.20 ); ( 1, 1.0 | airfoil | 1, 0.25 ); ( 1, 1.0 | airfoil | 1, 0.30 ); ( 1, 1.0 | airfoil | 1, 0.35 ); ( 1, 1.0 | airfoil | 1, 0.40 ); ( 1, 1.0 | airfoil | 1, 0.45 ); ( 1, 1.0 | airfoil | 1, 0.50 ); ( 1, 1.0 | airfoil | 1, 0.55 ); ( 1, 1.0 | airfoil | 1, 0.60 ); ( 1, 1.0 | airfoil | 1, 0.65 ); ( 1, 1.0 | airfoil | 1, 0.70 ); ( 1, 1.0 | airfoil | 1, 0.75 ); ( 1, 1.0 | airfoil | 1, 0.80 ); ( 1, 1.0 | airfoil | 1, 0.85 ); ( 1, 1.0 | airfoil | 1, 0.90 ); ( 1, 1.0 | airfoil | 1, 0.95 )

DEFINITION_DV= ( 15, 1.0 | airfoil | 0, 0, 0, 0, 1.0 ); ( 15, 1.0 | airfoil | 0, 1, 0, 0, 1.0 ); ( 15, 1.0 | airfoil | 0, 2, 0, 0, 1.0 ); ( 15, 1.0 | airfoil | 0, 3, 0, 0, 1.0 ); ( 15, 1.0 | airfoil | 0, 4, 0, 0, 1.0 );  ( 15, 1.0 | airfoil | 0, 5, 0, 0, 1.0 ); ( 15, 1.0 | airfoil | 0, 6, 0, 0, 1.0 ); ( 15, 1.0 | airfoil | 0, 7, 0, 0, 1.0 ); ( 15, 1.0 | airfoil | 0, 8, 0, 0, 1.0 ); ( 15, 1.0 | airfoil | 0, 9, 0, 0, 1.0 ); ( 15, 1.0 | airfoil | 0, 10, 0, 0, 1.0 ); ( 15, 1.0 | airfoil | 0, 11, 0, 0, 1.0 ); ( 15, 1.0 | airfoil | 0, 12, 0, 0, 1.0 ); ( 15, 1.0 | airfoil | 0, 13, 0, 0, 1.0 );  ( 15, 1.0 | airfoil | 0, 14, 0, 0, 1.0 ); ( 15, 1.0 | airfoil | 0, 15, 0, 0, 1.0 ); ( 15, 1.0 | airfoil | 0, 16, 0, 0, 1.0 ); ( 15, 1.0 | airfoil | 0, 17, 0, 0, 1.0 ); ( 15, 1.0 | airfoil | 0, 18, 0, 0, 1.0 ); ( 15, 1.0 | airfoil | 0, 19, 0, 0, 1.0 ); ( 15, 1.0 | airfoil | 0, 20, 0, 0, 1.0 ); ( 15, 1.0 | airfoil | 0, 21, 0, 0, 1.0 ); ( 15, 1.0 | airfoil | 0, 22, 0, 0, 1.0 ); ( 15, 1.0 | airfoil | 0, 23, 0, 0, 1.0 ); ( 15, 1.0 | airfoil | 0, 24, 0, 0, 1.0 ); ( 15, 1.0 | airfoil | 0, 25, 0, 0, 1.0 ); ( 15, 1.0 | airfoil | 0, 0, 1, 0, 1.0 );  ( 15, 1.0 | airfoil | 0, 1, 1, 0, 1.0 ); ( 15, 1.0 | airfoil | 0, 2, 1, 0, 1.0 ); ( 15, 1.0 | airfoil | 0, 3, 1, 0, 1.0 ); ( 15, 1.0 | airfoil | 0, 4, 1, 0, 1.0 ); ( 15, 1.0 | airfoil | 0, 5, 1, 0, 1.0 ); ( 15, 1.0 | airfoil | 0, 6, 1, 0, 1.0 ); ( 15, 1.0 | airfoil | 0, 7, 1, 0, 1.0 ); ( 15, 1.0 | airfoil | 0, 8, 1, 0, 1.0 ); ( 15, 1.0 | airfoil | 0, 9, 1, 0, 1.0 );  ( 15, 1.0 | airfoil | 0, 10, 1, 0, 1.0 ); ( 15, 1.0 | airfoil | 0, 11, 1, 0, 1.0 ); ( 15, 1.0 | airfoil | 0, 12, 1, 0, 1.0 ); ( 15, 1.0 | airfoil | 0, 13, 1, 0, 1.0 ); ( 15, 1.0 | airfoil | 0, 14, 1, 0, 1.0 ); ( 15, 1.0 | airfoil | 0, 15, 1, 0, 1.0 ); ( 15, 1.0 | airfoil | 0, 16, 1, 0, 1.0 ); ( 15, 1.0 | airfoil | 0, 17, 1, 0, 1.0 ); ( 15, 1.0 | airfoil | 0, 18, 1, 0, 1.0 ); ( 15, 1.0 | airfoil | 0, 19, 1, 0, 1.0 ); ( 15, 1.0 | airfoil | 0, 20, 1, 0, 1.0 );  ( 15, 1.0 | airfoil | 0, 21, 1, 0, 1.0 ); ( 15, 1.0 | airfoil | 0, 22, 1, 0, 1.0 ); ( 15, 1.0 | airfoil | 0, 23, 1, 0, 1.0 ); ( 15, 1.0 | airfoil | 0, 24, 1, 0, 1.0 ); ( 15, 1.0 | airfoil | 0, 25, 1, 0, 1.0 )