%%%%%%%%%%%%%%%%%%%%%%%%%%%%%%%%%%%%%%%%%%%%%%%%%%%%%%%%%%%%%%%%%%%%%%%%%%%%%%%%
%                                                                              %
% Case description: FSI primal problem SU2-pyBeam                              %
% Author: Ruben Sanchez                                                        %
% Institution: TU Kaiserslautern                                               %
% Date: 30/08/2019                                                             %
%                                                                              %
%%%%%%%%%%%%%%%%%%%%%%%%%%%%%%%%%%%%%%%%%%%%%%%%%%%%%%%%%%%%%%%%%%%%%%%%%%%%%%%%

% ------------- DIRECT, ADJOINT, AND LINEARIZED PROBLEM DEFINITION ------------%
%
% Physical governing equations (EULER, NAVIER_STOKES,
%                               TNE2_EULER, TNE2_NAVIER_STOKES,
%                               WAVE_EQUATION, HEAT_EQUATION, LINEAR_ELASTICITY,
%                               POISSON_EQUATION)
SOLVER= INC_NAVIER_STOKES
KIND_TURB_MODEL= NONE
MATH_PROBLEM= DIRECT

RESTART_SOL= NO
UNST_RESTART_ITER = 1

SCREEN_OUTPUT= (INNER_ITER, RMS_PRESSURE, RMS_VELOCITY-X, RMS_VELOCITY-Y, DRAG)


% ---------------- INCOMPRESSIBLE FLOW CONDITION DEFINITION -------------------%

INNER_ITER = 200

INC_DENSITY_MODEL= CONSTANT

INC_ENERGY_EQUATION = NO
INC_DENSITY_INIT= 1.0
INC_VELOCITY_INIT= ( 1.0, 0.0, 0.0 )

INC_TEMPERATURE_INIT= 300

INC_NONDIM= INITIAL_VALUES

INC_DENSITY_REF= 1.0
INC_VELOCITY_REF= 1.0
INC_TEMPERATURE_REF = 1.0

% --------------------------- VISCOSITY MODEL ---------------------------------%

VISCOSITY_MODEL= CONSTANT_VISCOSITY
MU_CONSTANT= 0.001

% ---------------------- REFERENCE VALUE DEFINITION ---------------------------%

REF_ORIGIN_MOMENT_X = 0.00
REF_ORIGIN_MOMENT_Y = 0.00
REF_ORIGIN_MOMENT_Z = 0.00

REF_LENGTH= 0.01
REF_AREA= 0.01

% -------------------- BOUNDARY CONDITION DEFINITION --------------------------%

MARKER_HEATFLUX= ( wallF, 0.0 )

INC_INLET_TYPE= VELOCITY_INLET
INC_OUTLET_TYPE= PRESSURE_OUTLET

MARKER_INLET= ( inlet, 0.0, 1.0, 1.0, 0.0, 0.0 )
MARKER_OUTLET= ( outlet, 0.0 )
MARKER_EULER= ( upper, lower )

MARKER_PLOTTING= ( wallF )
MARKER_MONITORING= ( wallF )

MARKER_DEFORM_MESH= ( wallF )
MARKER_FLUID_LOAD= ( wallF )

% ------------- COMMON PARAMETERS DEFINING THE NUMERICAL METHOD ---------------%

NUM_METHOD_GRAD= WEIGHTED_LEAST_SQUARES
CFL_NUMBER= 1000

CFL_ADAPT= NO
CFL_ADAPT_PARAM= ( 1.5, 0.5, 1.0, 100.0 )

RK_ALPHA_COEFF= ( 0.66667, 0.66667, 1.000000 )

% ------------------------ LINEAR SOLVER DEFINITION ---------------------------%

LINEAR_SOLVER= FGMRES
LINEAR_SOLVER_PREC= ILU
LINEAR_SOLVER_ERROR= 1E-15
LINEAR_SOLVER_ITER= 20

% --------------------------- MESH PARAMETERS ---------------------------------%

DEFORM_MESH = YES
DEFORM_STIFFNESS_TYPE = WALL_DISTANCE

DEFORM_LINEAR_SOLVER = CONJUGATE_GRADIENT
DEFORM_LINEAR_SOLVER_PREC = ILU
DEFORM_LINEAR_SOLVER_ERROR = 1E-8
DEFORM_LINEAR_SOLVER_ITER = 5000
DEFORM_CONSOLE_OUTPUT = NO

% -------------------------- MULTIGRID PARAMETERS -----------------------------%

MGLEVEL= 0
MGCYCLE= V_CYCLE

MG_PRE_SMOOTH= ( 1, 2, 3, 3 )
MG_POST_SMOOTH= ( 0, 0, 0, 0 )
MG_CORRECTION_SMOOTH= ( 0, 0, 0, 0 )
MG_DAMP_RESTRICTION= 0.7
MG_DAMP_PROLONGATION= 0.7

% -------------------- FLOW NUMERICAL METHOD DEFINITION -----------------------%

CONV_NUM_METHOD_FLOW= FDS
MUSCL_FLOW= YES
SLOPE_LIMITER_FLOW= NONE
TIME_DISCRE_FLOW= EULER_IMPLICIT

% -------------------- TURBULENT NUMERICAL METHOD DEFINITION ------------------%

CONV_NUM_METHOD_TURB= SCALAR_UPWIND
MUSCL_TURB= NO
SLOPE_LIMITER_TURB= VENKATAKRISHNAN
TIME_DISCRE_TURB= EULER_IMPLICIT

% --------------------------- CONVERGENCE PARAMETERS --------------------------%

CONV_FIELD= RMS_PRESSURE
CONV_RESIDUAL_MINVAL= -12
CONV_STARTITER= 10
CONV_CAUCHY_ELEMS= 100
CONV_CAUCHY_EPS= 1E-5

% ------------------------- INPUT/OUTPUT INFORMATION --------------------------%

MESH_FILENAME= mesh.su2

MESH_FORMAT= SU2
MESH_OUT_FILENAME= mesh_out.su2

SOLUTION_FILENAME= solution_flow.dat
RESTART_FILENAME= restart_flow.dat
VOLUME_ADJ_FILENAME= flow_adjoint

TABULAR_FORMAT= CSV
CONV_FILENAME= history

VOLUME_FILENAME= flow
SURFACE_FILENAME= surface_flow

WRT_SOL_FREQ= 1000
WRT_SOL_FREQ_DUALTIME= 1

WRT_CON_FREQ= 1
WRT_CON_FREQ_DUALTIME= 1


WRT_BINARY_RESTART=NO
READ_BINARY_RESTART=NO

