%%%%%%%%%%%%%%%%%%%%%%%%%%%%%%%%%%%%%%%%%%%%%%%%%%%%%%%%%%%%%%%%%%%%%%%%%%%%%%%%
%                                                                              %
% SU2 configuration file                                                       %
% Case description: flow through a heat exchanger, CHT setup                   %
% Author: Nijso Beishuizen, Ole Burghardt                                      %
% Institution: Bosch Thermotechniek BV, Technical University of Kaiserslautern %
% Date: 24/11/2020                                                             %
%                                                                              %
%%%%%%%%%%%%%%%%%%%%%%%%%%%%%%%%%%%%%%%%%%%%%%%%%%%%%%%%%%%%%%%%%%%%%%%%%%%%%%%%

SOLVER= MULTIPHYSICS

CONFIG_LIST= ( lam_prem_ch4_cht_ad_fluid.cfg, lam_prem_ch4_cht_ad_solid.cfg )


%%%%%%%%%%%%%%%%%%
%   Mesh stuff   %
%%%%%%%%%%%%%%%%%%


MESH_FILENAME= mesh_unstructured_cht.su2
% MESH_OUT_FILENAME= mesh_def.su2

MESH_FORMAT= SU2
MULTIZONE_MESH= YES

% Restart flow input file
SOLUTION_FILENAME= solution
READ_BINARY_RESTART= NO
RESTART_SOL= YES
RESTART_FILENAME= restart
RESTART_ADJ_FILENAME= restart_adj
SOLUTION_ADJ_FILENAME= restart_adj

% define the interface between the zones
MARKER_ZONE_INTERFACE= ( cht_interface_fluid, cht_interface_solid )
MARKER_CHT_INTERFACE=  ( cht_interface_fluid, cht_interface_solid )

CHT_COUPLING_METHOD= DIRECT_TEMPERATURE_ROBIN_HEATFLUX

TIME_DOMAIN= NO
OUTER_ITER = 11

OUTPUT_WRT_FREQ= 500
SCREEN_WRT_FREQ_INNER= 1
SCREEN_WRT_FREQ_OUTER= 1

WRT_VOLUME_OVERWRITE= YES

WRT_ZONE_CONV= YES
CONV_RESIDUAL_MINVAL= -20

VOLUME_FILENAME= fluid

CONV_FILENAME= history

% --------------------------- Optimization Parameters --------------------------%

GRAD_OBJFUNC_FILENAME= of_grad.csv

OBJECTIVE_FUNCTION= SURFACE_STATIC_TEMPERATURE
OBJECTIVE_WEIGHT= 1.0

DV_KIND= \
FFD_CONTROL_POINT_2D,\
FFD_CONTROL_POINT_2D,\
FFD_CONTROL_POINT_2D,\
FFD_CONTROL_POINT_2D,\
FFD_CONTROL_POINT_2D,\
FFD_CONTROL_POINT_2D,\
FFD_CONTROL_POINT_2D,\
FFD_CONTROL_POINT_2D

DV_MARKER= ( cht_interface_fluid, cht_interface_solid )

DV_PARAM= \
 (BOX, 0, 0, 1.0, 1.0);  \
 (BOX, 2, 0, 1.0, 1.0);  \
 (BOX, 2, 2, 1.0, 1.0);  \
 (BOX, 0, 2, 1.0, 1.0);  \
%
 (BOX, 1, 0, 0.0, 1.0);  \
 (BOX, 2, 1, 1.0, 0.0);  \
 (BOX, 1, 2, 0.0, 1.0);  \
 (BOX, 0, 1, 1.0, 0.0)

FFD_DEFINITION= (BOX, 0.0089, 0.0006, 0.0,   0.018, 0.0006, 0.0,   0.018, 0.0018, 0.0,   0.0089, 0.0018, 0.0,   0.0, 0.0, 0.0, 0.0, 0.0, 0.0, 0.0, 0.0, 0.0, 0.0, 0.0, 0.0)
FFD_DEGREE= ( 2, 1, 0)
FFD_CONTINUITY= 1ST_DERIVATIVE
FFD_FIX_I= (100)
FFD_FIX_J= (100)
FFD_ITERATIONS= 1000
FFD_TOLERANCE= 1E-10

DEFORM_STIFFNESS_TYPE= INVERSE_VOLUME

DV_VALUE=0.0,0.0,0.0,0.0,0.0,0.0,0.0,0.0
