% Physics -------------------------------------------------------------- %
SOLVER= ELASTICITY
%
% Optimization --------------------------------------------------------- %
GRAD_OBJFUNC_FILENAME= of_grad.dat
REFERENCE_NODE= 234
REFERENCE_NODE_DISPLACEMENT= (0.0, 0.0)
REFERENCE_NODE_PENALTY= 1.0
DESIGN_VARIABLE_FEA= YOUNG_MODULUS
%
% Solid properties ----------------------------------------------------- %
MATERIAL_MODEL= NEO_HOOKEAN
ELASTICITY_MODULUS= 7E9
POISSON_RATIO= 0.35
MATERIAL_DENSITY= 2700.0
%
% Boundary conditions -------------------------------------------------- %
% interface
% this needs to appear before the normal load marker
CONSERVATIVE_INTERPOLATION= NO
% solid
MARKER_CLAMPED= ( clamped )
MARKER_FLUID_LOAD= ( pressure_side_s, suction_side_s )
%
% Solid numerics ------------------------------------------------------- %
GEOMETRIC_CONDITIONS= LARGE_DEFORMATIONS
FORMULATION_ELASTICITY_2D= PLANE_STRESS
%
% Linear solvers ------------------------------------------------------- %
LINEAR_SOLVER= CONJUGATE_GRADIENT
LINEAR_SOLVER_PREC= ILU
LINEAR_SOLVER_ERROR= 1E-8
LINEAR_SOLVER_ITER= 1000
DISCADJ_LIN_SOLVER= CONJUGATE_GRADIENT
DISCADJ_LIN_PREC= ILU
%
% Convergence criteria ------------------------------------------------- %
% interaction
BGS_RELAXATION= FIXED_PARAMETER
STAT_RELAX_PARAMETER= 1.0
% solid
INNER_ITER= 11
% grid deformation
DEFORM_STIFFNESS_TYPE= INVERSE_VOLUME
%
% In\Out --------------------------------------------------------------- %
MESH_FILENAME= mesh.su2
MESH_FORMAT= SU2
%
RESTART_SOL= NO
SOLUTION_FILENAME= solution_solid.dat
SOLUTION_ADJ_FILENAME= adjoint_solid.dat
WRT_SOL_FREQ= 999999
RESTART_FILENAME= solution_solid.dat
RESTART_ADJ_FILENAME= adjoint_solid.dat
%
TABULAR_FORMAT= CSV
VOLUME_FILENAME= solid
VOLUME_ADJ_FILENAME= adjoint_solid
%
WRT_CON_FREQ= 10
CONV_FILENAME= history

