SOLVER= MULTIPHYSICS
MATH_PROBLEM= DISCRETE_ADJOINT
CONFIG_LIST=(configFlow.cfg, configFEA.cfg)

MARKER_ZONE_INTERFACE= (pressure_side,pressure_side_s, suction_side,suction_side_s)

CONSERVATIVE_INTERPOLATION= NO

OUTER_ITER= 9
MESH_FILENAME= mesh.su2

OBJECTIVE_FUNCTION= REFERENCE_NODE

SCREEN_OUTPUT= OUTER_ITER, AVG_BGS_RES[0], SENS_E[1]

%WRT_ZONE_CONV=YES
