SOLVER= MULTIPHYSICS
MATH_PROBLEM= DISCRETE_ADJOINT
CONFIG_LIST=(configFlow.cfg, configFEA.cfg)

MARKER_ZONE_INTERFACE= (pressure_side,pressure_side_s, suction_side,suction_side_s)

CONSERVATIVE_INTERPOLATION= NO

ADJ_FSI= YES
OUTER_ITER= 9
MESH_FILENAME= mesh.su2

OBJECTIVE_FUNCTION= REFERENCE_NODE
