SOLVER= MULTIPHYSICS
MATH_PROBLEM= DISCRETE_ADJOINT
CONFIG_LIST=(configFlow.cfg, configFEA.cfg)

MARKER_ZONE_INTERFACE= (pressure_side,pressure_side_s, suction_side,suction_side_s)

CONSERVATIVE_INTERPOLATION= NO

OUTER_ITER= 9
OUTPUT_WRT_FREQ= 5

MESH_FILENAME= mesh.su2

OBJECTIVE_FUNCTION= CUSTOM_OBJFUNC

SCREEN_OUTPUT= OUTER_ITER, AVG_BGS_RES[0], AVG_BGS_RES[1], LINSOL_RESIDUAL[0], sens_e[1], SENS_NU_0[1]

%WRT_ZONE_CONV=YES
