%%%%%%%%%%%%%%%%%%%%%%%%%%%%%%%%%%%%%%%%%%%%%%%%%%%%%%%%%%%%%%%%%%%%%%%%%%%%%%%%
%                                                                              %
% SU2 configuration file                                                       %
% Case description: Verification case for the ONERA M6 wing in inviscid flow   %
% Author: Thomas D. Economon	      	      	              	       	       %
% Institution: Stanford University				                               %
% Date: 09.07.2011                                                             %
% File Version 8.0.0 "Harrier"                                                 %
%                                                                              %
%%%%%%%%%%%%%%%%%%%%%%%%%%%%%%%%%%%%%%%%%%%%%%%%%%%%%%%%%%%%%%%%%%%%%%%%%%%%%%%%

% ------------- DIRECT, ADJOINT, AND LINEARIZED PROBLEM DEFINITION ------------%
%
SOLVER= EULER
MATH_PROBLEM= DIRECT
RESTART_SOL= NO

% ----------- COMPRESSIBLE AND INCOMPRESSIBLE FREE-STREAM DEFINITION ----------%
%
MACH_NUMBER= 0.8395
AOA= 3.06
SIDESLIP_ANGLE= 0.0
FREESTREAM_PRESSURE= 101325.0
FREESTREAM_TEMPERATURE= 288.15

% ------------------------- UNSTEADY SIMULATION -------------------------------%
%
TIME_MARCHING= DUAL_TIME_STEPPING-2ND_ORDER
TIME_STEP= 0.002161633860454094
% 25 steps per period: 0.002161633860454094
MAX_TIME= 0.541
% 10 periods: 0.5404084651135235
INNER_ITER= 250
UNST_ADJOINT_ITER= 251

% ----------------------- DYNAMIC MESH DEFINITION -----------------------------%
%
GRID_MOVEMENT= YES
GRID_MOVEMENT_KIND= RIGID_MOTION
MACH_MOTION= 0.8395
MOTION_ORIGIN_X= 0.201475
MOTION_ORIGIN_Y= 0.0
MOTION_ORIGIN_Z= 0.0
PITCHING_OMEGA_X= 0.0
PITCHING_OMEGA_Y= 116.26733689
PITCHING_OMEGA_Z= 0.0
PITCHING_AMPL_X= 0.0
PITCHING_AMPL_Y= 2.5
PITCHING_AMPL_Z= 0.0

% ---------------------- REFERENCE VALUE DEFINITION ---------------------------%
%
REF_ORIGIN_MOMENT_X = 0.2015
REF_ORIGIN_MOMENT_Y = 0.00
REF_ORIGIN_MOMENT_Z = 0.00
REF_LENGTH= 0.64607
REF_AREA= 0
REF_SHARP_EDGES= 3.0

% ----------------------- BOUNDARY CONDITION DEFINITION -----------------------%
%
MARKER_EULER= ( UPPER_SIDE, LOWER_SIDE, TIP )
MARKER_FAR= ( XNORMAL_FACES, ZNORMAL_FACES, YNORMAL_FACE )
MARKER_SYM= ( SYMMETRY_FACE )
MARKER_PLOTTING= ( UPPER_SIDE, LOWER_SIDE, TIP )
MARKER_MONITORING= ( UPPER_SIDE, LOWER_SIDE, TIP )

% ------------- COMMON PARAMETERS TO DEFINE THE NUMERICAL METHOD --------------%
%
NUM_METHOD_GRAD= WEIGHTED_LEAST_SQUARES
CFL_NUMBER= 8.0
CFL_ADAPT= NO
CFL_ADAPT_PARAM= ( 1.5, 0.5, 1.0, 100.0 )
RK_ALPHA_COEFF= ( 0.66667, 0.66667, 1.000000 )
ITER= 99999
LINEAR_SOLVER= FGMRES
LINEAR_SOLVER_ERROR= 1E-6
LINEAR_SOLVER_ITER= 5

% -------------------------- MULTIGRID PARAMETERS -----------------------------%
%
MGLEVEL= 2
MGCYCLE= V_CYCLE
MG_PRE_SMOOTH= ( 1, 2, 3, 3 )
MG_POST_SMOOTH= ( 0, 0, 0, 0 )
MG_CORRECTION_SMOOTH= ( 0, 0, 0, 0 )
MG_DAMP_RESTRICTION= 0.9
MG_DAMP_PROLONGATION= 0.9

% -------------------- FLOW NUMERICAL METHOD DEFINITION -----------------------%
%
CONV_NUM_METHOD_FLOW= JST
VENKAT_LIMITER_COEFF= 0.03
JST_SENSOR_COEFF= ( 0.5, 0.02 )
TIME_DISCRE_FLOW= EULER_IMPLICIT

% ---------------- ADJOINT-FLOW NUMERICAL METHOD DEFINITION -------------------%
%
CONV_NUM_METHOD_ADJFLOW= JST
ADJ_SHARP_LIMITER_COEFF= 3.0
ADJ_JST_SENSOR_COEFF= ( 0.5, 0.02 )
CFL_REDUCTION_ADJFLOW= 0.25
LIMIT_ADJFLOW= 1E6
SENS_REMOVE_SHARP= YES
TIME_DISCRE_ADJFLOW= EULER_IMPLICIT

% ----------------------- GEOMETRY EVALUATION PARAMETERS ----------------------%
%
GEO_MARKER= ( UPPER_SIDE, LOWER_SIDE, TIP )
GEO_DESCRIPTION= WING
GEO_LOCATION_STATIONS= (0.0, 0.2, 0.4, 0.6, 0.8)
GEO_BOUNDS= (1.5, 3.5)
GEO_PLOT_STATIONS= NO
GEO_MODE= FUNCTION

% --------------------------- CONVERGENCE PARAMETERS --------------------------&
%
CONV_RESIDUAL_MINVAL= -10
CONV_STARTITER= 10
CONV_CAUCHY_ELEMS= 100
CONV_CAUCHY_EPS= 1E-10

% ------------------------- INPUT/OUTPUT INFORMATION --------------------------%
%
MESH_FILENAME= mesh_ONERAM6_inv.su2
MESH_OUT_FILENAME= mesh_out.su2
SOLUTION_FILENAME= solution_flow.dat
SOLUTION_ADJ_FILENAME= solution_adj.dat
MESH_FORMAT= SU2
TABULAR_FORMAT= CSV
CONV_FILENAME= history
RESTART_FILENAME= restart_flow.dat
RESTART_ADJ_FILENAME= restart_adj.dat
VOLUME_FILENAME= flow
VOLUME_ADJ_FILENAME= adjoint
GRAD_OBJFUNC_FILENAME= of_grad.dat
SURFACE_FILENAME= surface_flow
SURFACE_ADJ_FILENAME= surface_adjoint
OUTPUT_WRT_FREQ= 1

% ----------------------- DESIGN VARIABLE PARAMETERS --------------------------%
%
DV_KIND= FFD_SETTING
DV_MARKER= ( UPPER_SIDE, LOWER_SIDE, TIP )
DV_PARAM= ( 0, 1, 0, 0, 0.0, 0.0, 1.0 )
DV_VALUE= 0.0

% --------------------- OPTIMAL SHAPE DESIGN DEFINITION -----------------------%
%
OPT_OBJECTIVE= DRAG * 0.1
OPT_CONSTRAINT= (LIFT > 0.2864) * 0.1; (STATION1_THICKNESS > 0.0570) * 0.1; (STATION2_THICKNESS > 0.0513) * 0.1; (STATION3_THICKNESS > 0.0457) * 0.1; (STATION4_THICKNESS > 0.0399) * 0.1; (STATION5_THICKNESS > 0.0343) * 0.1
DEFINITION_DV= ( 11, 1.0 | UPPER_SIDE, LOWER_SIDE, TIP | 0, 0, 0, 1, 0.0, 0.0, 1.0 ); ( 11, 1.0 | UPPER_SIDE, LOWER_SIDE, TIP | 0, 1, 0, 1, 0.0, 0.0, 1.0 ); ( 11, 1.0 | UPPER_SIDE, LOWER_SIDE, TIP | 0, 2, 0, 1, 0.0, 0.0, 1.0 ); ( 11, 1.0 | UPPER_SIDE, LOWER_SIDE, TIP | 0, 3, 0, 1, 0.0, 0.0, 1.0 ); ( 11, 1.0 | UPPER_SIDE, LOWER_SIDE, TIP | 0, 4, 0, 1, 0.0, 0.0, 1.0 ); ( 11, 1.0 | UPPER_SIDE, LOWER_SIDE, TIP | 0, 0, 1, 1, 0.0, 0.0, 1.0 ); ( 11, 1.0 | UPPER_SIDE, LOWER_SIDE, TIP | 0, 1, 1, 1, 0.0, 0.0, 1.0 ); ( 11, 1.0 | UPPER_SIDE, LOWER_SIDE, TIP | 0, 2, 1, 1, 0.0, 0.0, 1.0 ); ( 11, 1.0 | UPPER_SIDE, LOWER_SIDE, TIP | 0, 3, 1, 1, 0.0, 0.0, 1.0 ); ( 11, 1.0 | UPPER_SIDE, LOWER_SIDE, TIP | 0, 4, 1, 1, 0.0, 0.0, 1.0 ); ( 11, 1.0 | UPPER_SIDE, LOWER_SIDE, TIP | 0, 0, 2, 1, 0.0, 0.0, 1.0 ); ( 11, 1.0 | UPPER_SIDE, LOWER_SIDE, TIP | 0, 1, 2, 1, 0.0, 0.0, 1.0 ); ( 11, 1.0 | UPPER_SIDE, LOWER_SIDE, TIP | 0, 2, 2, 1, 0.0, 0.0, 1.0 ); ( 11, 1.0 | UPPER_SIDE, LOWER_SIDE, TIP | 0, 3, 2, 1, 0.0, 0.0, 1.0 ); ( 11, 1.0 | UPPER_SIDE, LOWER_SIDE, TIP | 0, 4, 2, 1, 0.0, 0.0, 1.0 ); ( 11, 1.0 | UPPER_SIDE, LOWER_SIDE, TIP | 0, 0, 3, 1, 0.0, 0.0, 1.0 ); ( 11, 1.0 | UPPER_SIDE, LOWER_SIDE, TIP | 0, 1, 3, 1, 0.0, 0.0, 1.0 ); ( 11, 1.0 | UPPER_SIDE, LOWER_SIDE, TIP | 0, 2, 3, 1, 0.0, 0.0, 1.0 ); ( 11, 1.0 | UPPER_SIDE, LOWER_SIDE, TIP | 0, 3, 3, 1, 0.0, 0.0, 1.0 ); ( 11, 1.0 | UPPER_SIDE, LOWER_SIDE, TIP | 0, 4, 3, 1, 0.0, 0.0, 1.0 ); ( 11, 1.0 | UPPER_SIDE, LOWER_SIDE, TIP | 0, 0, 4, 1, 0.0, 0.0, 1.0 ); ( 11, 1.0 | UPPER_SIDE, LOWER_SIDE, TIP | 0, 1, 4, 1, 0.0, 0.0, 1.0 ); ( 11, 1.0 | UPPER_SIDE, LOWER_SIDE, TIP | 0, 2, 4, 1, 0.0, 0.0, 1.0 ); ( 11, 1.0 | UPPER_SIDE, LOWER_SIDE, TIP | 0, 3, 4, 1, 0.0, 0.0, 1.0 ); ( 11, 1.0 | UPPER_SIDE, LOWER_SIDE, TIP | 0, 4, 4, 1, 0.0, 0.0, 1.0 ); ( 11, 1.0 | UPPER_SIDE, LOWER_SIDE, TIP | 0, 0, 0, 0, 0.0, 0.0, 1.0 ); ( 11, 1.0 | UPPER_SIDE, LOWER_SIDE, TIP | 0, 1, 0, 0, 0.0, 0.0, 1.0 ); ( 11, 1.0 | UPPER_SIDE, LOWER_SIDE, TIP | 0, 2, 0, 0, 0.0, 0.0, 1.0 ); ( 11, 1.0 | UPPER_SIDE, LOWER_SIDE, TIP | 0, 3, 0, 0, 0.0, 0.0, 1.0 ); ( 11, 1.0 | UPPER_SIDE, LOWER_SIDE, TIP | 0, 4, 0, 0, 0.0, 0.0, 1.0 ); ( 11, 1.0 | UPPER_SIDE, LOWER_SIDE, TIP | 0, 0, 1, 0, 0.0, 0.0, 1.0 ); ( 11, 1.0 | UPPER_SIDE, LOWER_SIDE, TIP | 0, 1, 1, 0, 0.0, 0.0, 1.0 ); ( 11, 1.0 | UPPER_SIDE, LOWER_SIDE, TIP | 0, 2, 1, 0, 0.0, 0.0, 1.0 ); ( 11, 1.0 | UPPER_SIDE, LOWER_SIDE, TIP | 0, 3, 1, 0, 0.0, 0.0, 1.0 ); ( 11, 1.0 | UPPER_SIDE, LOWER_SIDE, TIP | 0, 4, 1, 0, 0.0, 0.0, 1.0 ); ( 11, 1.0 | UPPER_SIDE, LOWER_SIDE, TIP | 0, 0, 2, 0, 0.0, 0.0, 1.0 ); ( 11, 1.0 | UPPER_SIDE, LOWER_SIDE, TIP | 0, 1, 2, 0, 0.0, 0.0, 1.0 ); ( 11, 1.0 | UPPER_SIDE, LOWER_SIDE, TIP | 0, 2, 2, 0, 0.0, 0.0, 1.0 ); ( 11, 1.0 | UPPER_SIDE, LOWER_SIDE, TIP | 0, 3, 2, 0, 0.0, 0.0, 1.0 ); ( 11, 1.0 | UPPER_SIDE, LOWER_SIDE, TIP | 0, 4, 2, 0, 0.0, 0.0, 1.0 ); ( 11, 1.0 | UPPER_SIDE, LOWER_SIDE, TIP | 0, 0, 3, 0, 0.0, 0.0, 1.0 ); ( 11, 1.0 | UPPER_SIDE, LOWER_SIDE, TIP | 0, 1, 3, 0, 0.0, 0.0, 1.0 ); ( 11, 1.0 | UPPER_SIDE, LOWER_SIDE, TIP | 0, 2, 3, 0, 0.0, 0.0, 1.0 ); ( 11, 1.0 | UPPER_SIDE, LOWER_SIDE, TIP | 0, 3, 3, 0, 0.0, 0.0, 1.0 ); ( 11, 1.0 | UPPER_SIDE, LOWER_SIDE, TIP | 0, 4, 3, 0, 0.0, 0.0, 1.0 ); ( 11, 1.0 | UPPER_SIDE, LOWER_SIDE, TIP | 0, 0, 4, 0, 0.0, 0.0, 1.0 ); ( 11, 1.0 | UPPER_SIDE, LOWER_SIDE, TIP | 0, 1, 4, 0, 0.0, 0.0, 1.0 ); ( 11, 1.0 | UPPER_SIDE, LOWER_SIDE, TIP | 0, 2, 4, 0, 0.0, 0.0, 1.0 ); ( 11, 1.0 | UPPER_SIDE, LOWER_SIDE, TIP | 0, 3, 4, 0, 0.0, 0.0, 1.0 ); ( 11, 1.0 | UPPER_SIDE, LOWER_SIDE, TIP | 0, 4, 4, 0, 0.0, 0.0, 1.0 )
