%%%%%%%%%%%%%%%%%%%%%%%%%%%%%%%%%%%%%%%%%%%%%%%%%%%%%%%%%%%%%%%%%%%%%%%%%%%%%%%%
%                                                                              %
% SU2 configuration file                                                       %
% Case description: Discrete Adjoint CFD test case for python wrapper          %
% Author: R.Sanchez                                                            %
% Institution: TU Kaiserslautern                                               %
% Date: 2019.07.08                                                             %
%                                                                              %
%%%%%%%%%%%%%%%%%%%%%%%%%%%%%%%%%%%%%%%%%%%%%%%%%%%%%%%%%%%%%%%%%%%%%%%%%%%%%%%%

% ------------- DIRECT, ADJOINT, AND LINEARIZED PROBLEM DEFINITION ------------%
%
SOLVER= INC_NAVIER_STOKES
KIND_TURB_MODEL= NONE
MATH_PROBLEM= DISCRETE_ADJOINT
RESTART_SOL= NO
MULTIZONE_MESH = NO
ITER = 181
INNER_ITER = 181

% ------------------------- UNSTEADY SIMULATION -------------------------------%

OBJECTIVE_FUNCTION = DRAG

% ---------------- INCOMPRESSIBLE FLOW CONDITION DEFINITION -------------------%

INC_DENSITY_MODEL= CONSTANT
INC_ENERGY_EQUATION = NO
INC_DENSITY_INIT= 1.0
INC_VELOCITY_INIT= ( 1.0, 0.0, 0.0 )
INC_TEMPERATURE_INIT= 300
INC_NONDIM= INITIAL_VALUES
INC_DENSITY_REF= 1.0
INC_VELOCITY_REF= 1.0
INC_TEMPERATURE_REF = 1.0

% --------------------------- VISCOSITY MODEL ---------------------------------%

VISCOSITY_MODEL= CONSTANT_VISCOSITY
MU_CONSTANT= 0.001

% ---------------------- REFERENCE VALUE DEFINITION ---------------------------%

REF_ORIGIN_MOMENT_X = 0.00
REF_ORIGIN_MOMENT_Y = 0.00
REF_ORIGIN_MOMENT_Z = 0.00
REF_LENGTH= 0.01
REF_AREA= 0.01

% -------------------- BOUNDARY CONDITION DEFINITION --------------------------%

MARKER_HEATFLUX= ( wallF, 0.0 )
INC_INLET_TYPE= VELOCITY_INLET
INC_OUTLET_TYPE= PRESSURE_OUTLET
MARKER_INLET= ( inlet, 0.0, 1.0, 1.0, 0.0, 0.0 )
MARKER_OUTLET= ( outlet, 0.0 )
MARKER_EULER= ( upper, lower )
MARKER_PLOTTING= ( wallF )
MARKER_MONITORING= ( wallF )
MARKER_DEFORM_MESH= ( wallF )

% ------------- COMMON PARAMETERS DEFINING THE NUMERICAL METHOD ---------------%

NUM_METHOD_GRAD= WEIGHTED_LEAST_SQUARES
CFL_NUMBER= 1000
CFL_ADAPT= NO
CFL_ADAPT_PARAM= ( 1.5, 0.5, 1.0, 100.0 )
RK_ALPHA_COEFF= ( 0.66667, 0.66667, 1.000000 )

% ------------------------ LINEAR SOLVER DEFINITION ---------------------------%

LINEAR_SOLVER= FGMRES
LINEAR_SOLVER_PREC= ILU
LINEAR_SOLVER_ERROR= 1E-15
LINEAR_SOLVER_ITER= 20

% -------------------- FLOW NUMERICAL METHOD DEFINITION -----------------------%

CONV_NUM_METHOD_FLOW= FDS
MUSCL_FLOW= YES
SLOPE_LIMITER_FLOW= NONE
TIME_DISCRE_FLOW= EULER_IMPLICIT

% -------------------- TURBULENT NUMERICAL METHOD DEFINITION ------------------%

CONV_NUM_METHOD_TURB= SCALAR_UPWIND
MUSCL_TURB= NO
SLOPE_LIMITER_TURB= VENKATAKRISHNAN
TIME_DISCRE_TURB= EULER_IMPLICIT

% --------------------------- CONVERGENCE PARAMETERS --------------------------%

CONV_FIELD = RMS_ADJ_DENSITY
CONV_RESIDUAL_MINVAL= -16
CONV_STARTITER= 10
CONV_CAUCHY_ELEMS= 100
CONV_CAUCHY_EPS= 1E-5

% ------------------------- INPUT/OUTPUT INFORMATION --------------------------%

MESH_FILENAME= meshFlow.su2
MESH_FORMAT= SU2
MESH_OUT_FILENAME= mesh_out.su2
SOLUTION_FILENAME= solution_flow.dat
RESTART_FILENAME= restart_flow.dat
TABULAR_FORMAT= CSV
CONV_FILENAME= history
VOLUME_FILENAME= flow
SURFACE_FILENAME= surface_flow
OUTPUT_WRT_FREQ= 1000

% --------------------------- MESH PARAMETERS ---------------------------------%

DEFORM_MESH = YES
DEFORM_STIFFNESS_TYPE = WALL_DISTANCE
DEFORM_POISSONS_RATIO = 1E6

DEFORM_LINEAR_SOLVER = CONJUGATE_GRADIENT
DEFORM_LINEAR_SOLVER_PREC = ILU
DEFORM_LINEAR_SOLVER_ERROR = 1E-8
DEFORM_LINEAR_SOLVER_ITER = 5000
DEFORM_CONSOLE_OUTPUT = NO

READ_BINARY_RESTART=NO
