%%%%%%%%%%%%%%%%%%%%%%%%%%%%%%%%%%%%%%%%%%%%%%%%%%%%%%%%%%%%%%%%%%%%%%%%%%%%%%%%
%                                                                              %
% Stanford University Unstructured (SU2) configuration file                    %
% Case description: RAM-C II 61km test case                                    %
% Author: Sean R. Copeland                                                     %
% Institution: Stanford University                                             %
% Date: July 30, 2013                                                          %
% File Version 2.0.6                                                           %
%                                                                              %
%%%%%%%%%%%%%%%%%%%%%%%%%%%%%%%%%%%%%%%%%%%%%%%%%%%%%%%%%%%%%%%%%%%%%%%%%%%%%%%%

% ------------- DIRECT, ADJOINT, AND LINEARIZED PROBLEM DEFINITION ------------%
%
% Physical governing equations (EULER, NAVIER_STOKES,
%                               PLASMA_EULER, PLASMA_NAVIER_STOKES,              
%                               FLUID_STRUCTURE_EULER, FLUID_STRUCTURE_NAVIER_STOKES,
%                               AEROACOUSTIC_EULER, AEROACOUSTIC_NAVIER_STOKES,
%                               WAVE_EQUATION, HEAT_EQUATION, LINEAR_ELASTICITY)
PHYSICAL_PROBLEM= TNE2_EULER
%
% Mathematical problem (DIRECT, ADJOINT, LINEARIZED)
MATH_PROBLEM= DIRECT
%
% Restart solution (NO, YES)
RESTART_SOL= NO

% -------------------- COMPRESSIBLE FREE-STREAM DEFINITION --------------------%
%
% Mach number (non-dimensional, based on the free-stream values)
MACH_NUMBER= 23.9
%
% Angle of attack (degrees, only for compressible flows)
AoA= 0.0
%
% Side-slip angle (degrees, only for compressible flows)
SIDESLIP_ANGLE= 0.0
%
% Free-stream pressure (101325.0 N/m^2 by default)  
FREESTREAM_PRESSURE= 19.7594
%
% Free-stream temperature (273.15 K by default)
FREESTREAM_TEMPERATURE= 254.0
%
% Free-stream vibrational-electronic temperature (273.15 K by default)
FREESTREAM_TEMPERATURE_VE= 254.0
%
% Reynolds number (non-dimensional, based on the free-stream values)
REYNOLDS_NUMBER= 19500
%
% Reynolds length (1 m by default)
REYNOLDS_LENGTH= 1.0

% -------------- COMPRESSIBLE AND INCOMPRESSIBLE FLUID CONSTANTS --------------%
%
% Ratio of specific heats (1.4 (air), only for compressible flows)
GAMMA_VALUE= 1.4
%
% Specific gas constant (287.87 J/kg*K (air), only for compressible flows)
GAS_CONSTANT= 287.87
%
% Laminar Prandtl number (0.72 (air), only for compressible flows)
PRANDTL_LAM= 0.72
%
% Turbulent Prandtl number (0.9 (air), only for compressible flows)
PRANDTL_TURB= 0.9
%
% Specify chemical model for multi-species simulations (ARGON, O2, AIR-5, AIR-7)
GAS_MODEL= N2

% ---------------------- REFERENCE VALUE DEFINITION ---------------------------%
%
% Factor for converting the grid to meters
CONVERT_TO_METER= 1.0
%
% Write a new mesh converted to meters (NO, YES)
WRITE_CONVERTED_MESH = NO
%
% Reference origin for moment computation
REF_ORIGIN_MOMENT_X = 0.00
REF_ORIGIN_MOMENT_Y = 0.00
REF_ORIGIN_MOMENT_Z = 0.00
%
% Reference length for pitching, rolling, and yawing non-dimensional moment
REF_LENGTH_MOMENT= 1.0
%
% Reference area for force coefficients (0 implies automatic calculation)
REF_AREA= 1.0
%
% Reference pressure (1.0 N/m^2 by default, only for compressible flows)
REF_PRESSURE= 1.0
%
% Reference temperature (1.0 K by default, only for compressible flows)
REF_TEMPERATURE= 1.0
%
% Reference density (1.0 Kg/m^3 by default, only for compressible flows)
REF_DENSITY= 1.0

% -------------------- BOUNDARY CONDITION DEFINITION --------------------------%
%
% Euler wall boundary marker(s) (NONE = no marker)
MARKER_EULER= ( Wall )
%
% Far-field boundary marker(s) (NONE = no marker)
MARKER_FAR= ( Inflow, Outflow, Top )
%
% Symmetry boundary marker(s) (NONE = no marker)
MARKER_SYM= ( Axis, SymmetryL, SymmetryR )

% ------------------------ SURFACES IDENTIFICATION ----------------------------%
%
% Marker(s) of the surface in the surface flow solution file
MARKER_PLOTTING = ( Wall )
%
% Marker(s) of the surface where the non-dimensional coefficients are evaluated.
MARKER_MONITORING = ( Wall )
%
% Marker(s) of the surface where obj. func. (design problem) will be evaluated
MARKER_DESIGNING = ( Wall )

% ------------- COMMON PARAMETERS DEFINING THE NUMERICAL METHOD ---------------%
%
% Numerical method for spatial gradients (GREEN_GAUSS, WEIGHTED_LEAST_SQUARES)
NUM_METHOD_GRAD= WEIGHTED_LEAST_SQUARES
%
% Courant-Friedrichs-Lewy condition of the finest grid
CFL_NUMBER= 0.5
%
% CFL ramp (factor, number of iterations, CFL limit)
CFL_RAMP= ( 1.1, 100, 2.0 )
%
% Runge-Kutta alpha coefficients
RK_ALPHA_COEFF= ( 0.66667, 0.66667, 1.000000 )
%
% Number of total iterations
EXT_ITER= 3000

% ------------------------ LINEAR SOLVER DEFINITION ---------------------------%
%
% Linear solver for the implicit (or discrete adjoint) formulation (LU_SGS,
%                                              SYM_GAUSS_SEIDEL, BCGSTAB, GMRES)
LINEAR_SOLVER= FGMRES
%
% Linear solver preconditioner
LINEAR_SOLVER_PREC= LU_SGS
%
% Min error of the linear solver for the implicit formulation
LINEAR_SOLVER_ERROR= 1E-8
%
% Max number of iterations of the linear solver for the implicit formulation
LINEAR_SOLVER_ITER= 10
%
% Relaxation coefficient
LINEAR_SOLVER_RELAX= 0.75

% -------------------------- MULTIGRID PARAMETERS -----------------------------%
%
% Multi-grid Levels (0 = no multi-grid)
MGLEVEL= 0
%
% Multi-grid Cycle (0 = V cycle, 1 = W Cycle)
MGCYCLE= 0
%
% CFL reduction factor on the coarse levels
MG_CFL_REDUCTION= 0.8
%
% Maximum number of children in the agglomeration stage
MAX_CHILDREN= 50
%
% Maximum length of an agglomerated element (relative to the domain)
MAX_DIMENSION= 0.1
%
% Multi-grid pre-smoothing level
MG_PRE_SMOOTH= ( 1, 2, 3, 3 )
%
% Multi-grid post-smoothing level
MG_POST_SMOOTH= ( 0, 0, 0, 0 )
%
% Jacobi implicit smoothing of the correction
MG_CORRECTION_SMOOTH= ( 0, 0, 0, 0 )
%
% Damping factor for the residual restriction
MG_DAMP_RESTRICTION= 0.85
%
% Damping factor for the correction prolongation
MG_DAMP_PROLONGATION= 0.85
%
% Full multi-grid (NO, YES)
FULLMG= NO
%
% Start up iterations using the fine grid only
START_UP_ITER= 0

% -------------------- FLOW NUMERICAL METHOD DEFINITION -----------------------%
%
% Convective numerical method (JST, LAX-FRIEDRICH, ROE-1ST_ORDER, 
%                              ROE-2ND_ORDER, AUSM-1ST_ORDER, AUSM-2ND_ORDER,
%                              HLLC-1ST_ORDER, HLLC-2ND_ORDER, ROE_TURKEL_1ST, 
%                              ROE_TURKEL_2ND)
CONV_NUM_METHOD_FLOW= AUSM-1ST_ORDER
%
% Slope limiter (NONE, VENKATAKRISHNAN)
SLOPE_LIMITER_FLOW= NONE
%
% Coefficient for the limiter
LIMITER_COEFF= 0.3
%
% 1st, 2nd and 4th order artificial dissipation coefficients
AD_COEFF_FLOW= ( 0.15, 0.5, 0.02 )
%
% Viscous numerical method (AVG_GRAD, AVG_GRAD_CORRECTED, GALERKIN)
VISC_NUM_METHOD_FLOW= AVG_GRAD_CORRECTED
%
% Source term numerical method (PIECEWISE_CONSTANT)
SOUR_NUM_METHOD_FLOW= PIECEWISE_CONSTANT
%
% Time discretization (RUNGE-KUTTA_EXPLICIT, EULER_IMPLICIT, EULER_EXPLICIT)
TIME_DISCRE_FLOW= EULER_IMPLICIT

% --------- THERMODYNAMIC NON-EQUILIBRIUM NUMERICAL METHOD DEFINITION ---------%
%
% Convective numerical method (ROE-1ST_ORDER, 
%                              ROE-2ND_ORDER, AUSM-1ST_ORDER, AUSM-2ND_ORDER,
%                              HLLC-1ST_ORDER, HLLC-2ND_ORDER, ROE_TURKEL_1ST, 
%                              ROE_TURKEL_2ND)
CONV_NUM_METHOD_TNE2= AUSM-1ST_ORDER
%
% Slope limiter (NONE, VENKATAKRISHNAN)
SLOPE_LIMITER_TNE2= NONE
%
% Viscous numerical method (AVG_GRAD, AVG_GRAD_CORRECTED, GALERKIN)
VISC_NUM_METHOD_TNE2= NONE
%
% Source term numerical method (PIECEWISE_CONSTANT)
SOUR_NUM_METHOD_TNE2= PIECEWISE_CONSTANT
%
% Time discretization (RUNGE-KUTTA_EXPLICIT, EULER_IMPLICIT, EULER_EXPLICIT)
TIME_DISCRE_TNE2= EULER_IMPLICIT

% --------------------------- PARTITIONING STRATEGY ---------------------------%
%
% Write a tecplot/paraview file for each partition (NO, YES)
VISUALIZE_PART= YES

% ----------------------- GEOMETRY EVALUATION PARAMETERS ----------------------%
%
% Geometrical evaluation mode (ANALYSIS, GRADIENT)
GEO_MODE= GRADIENT

% --------------------------- CONVERGENCE PARAMETERS --------------------------%
%
% Convergence criteria (CAUCHY, RESIDUAL)
%
CONV_CRITERIA= RESIDUAL
%
% Residual reduction (order of magnitude with respect to the initial value)
RESIDUAL_REDUCTION= 5
%
% Min value of the residual (log10 of the residual)
RESIDUAL_MINVAL= -8
%
% Start convergence criteria at iteration number
STARTCONV_ITER= 10
%
% Number of elements to apply the criteria
CAUCHY_ELEMS= 100
%
% Epsilon to control the series convergence
CAUCHY_EPS= 1E-10
%
% Function to apply the criteria (LIFT, DRAG, NEARFIELD_PRESS, SENS_GEOMETRY,
% 	      	    		 SENS_MACH, DELTA_LIFT, DELTA_DRAG)
CAUCHY_FUNC_FLOW= DRAG
CAUCHY_FUNC_ADJ= SENS_GEOMETRY
CAUCHY_FUNC_LIN= DELTA_DRAG
%
% Epsilon for full multigrid method evaluation
FULLMG_CAUCHY_EPS= 1E-4

% ------------------------- INPUT/OUTPUT INFORMATION --------------------------%
%
% Mesh input file
MESH_FILENAME= RAM-C_II_nondegen10deg.su2
%
% Mesh input file format (SU2, CGNS, NETCDF_ASCII)
MESH_FORMAT= SU2
%
% Divide rectangles into triangles (NO, YES)
DIVIDE_ELEMENTS= NO
%
% Convert a CGNS mesh to SU2 format (YES, NO)
CGNS_TO_SU2= NO
%
% Mesh output file
MESH_OUT_FILENAME= mesh_out.su2
%
% Restart flow input file
SOLUTION_FLOW_FILENAME= solution_flow.dat
%
% Restart linear flow input file
SOLUTION_LIN_FILENAME= solution_lin.dat
%
% Restart adjoint input file
SOLUTION_ADJ_FILENAME= solution_adj.dat
%
% Output file format (TECPLOT, CGNS, TECPLOT_BINARY, STL)
OUTPUT_FORMAT= TECPLOT
%
% Output file convergence history (w/o extension) 
CONV_FILENAME= history
%
% Output file restart flow
RESTART_FLOW_FILENAME= restart_flow.dat
%
% Output file restart adjoint
RESTART_ADJ_FILENAME= restart_adj.dat
%
% Output file linear flow
RESTART_LIN_FILENAME= restart_lin.dat
%
% Output file flow (w/o extension) variables
VOLUME_FLOW_FILENAME= flow
%
% Output file adjoint (w/o extension) variables
VOLUME_ADJ_FILENAME= adjoint
%
% Output file linearized (w/o extension) variables
VOLUME_LIN_FILENAME= linearized
%
% Output objective function gradient (using continuous adjoint)
GRAD_OBJFUNC_FILENAME= of_grad.dat
%
% Output file surface flow coefficient (w/o extension)
SURFACE_FLOW_FILENAME= surface_flow
%
% Output file surface adjoint coefficient (w/o extension)
SURFACE_ADJ_FILENAME= surface_adjoint
%
% Output file surface linear coefficient (w/o extension)
SURFACE_LIN_FILENAME= surface_linear
%
% Writing solution file frequency
WRT_SOL_FREQ= 30
%
% Writing solution file frequency for physical time steps (dual time)
WRT_SOL_FREQ_DUALTIME= 1
%
% Writing convergence history frequency
WRT_CON_FREQ= 1
%
% Writing convergence history frequency (dual time, only written to screen)
WRT_CON_FREQ_DUALTIME= 10
%
% Output rind layers in the solution files
WRT_HALO= NO