%%%%%%%%%%%%%%%%%%%%%%%%%%%%%%%%%%%%%%%%%%%%%%%%%%%%%%%%%%%%%%%%%%%%%%%%%%%%%%%%
%                                                                              %
% SU2 configuration file                                                       %
% Case description: Laminar premixed flame with isothermal heat exchanger      %
% Author: Daniel Mayer                                                         %
% Institution: Robert Bosch LLC                                                %
% Date: 08/07/2019                                                             %
% File Version 6.2.0 "Falcon", branch: feature_flamelet                        %
%                                                                              %
%%%%%%%%%%%%%%%%%%%%%%%%%%%%%%%%%%%%%%%%%%%%%%%%%%%%%%%%%%%%%%%%%%%%%%%%%%%%%%%%

% ------------- DIRECT, ADJOINT, AND LINEARIZED PROBLEM DEFINITION ------------%
%
% Physical governing equations (EULER, NAVIER_STOKES,
%                               WAVE_EQUATION, HEAT_EQUATION, FEM_ELASTICITY,
%                               POISSON_EQUATION)

SOLVER = INC_RANS 
%SOLVER = INC_NAVIER_STOKES         

% Specify turbulent model (NONE, SA, SA_NEG, SST)
KIND_TURB_MODEL= SST 
%KIND_TURB_MODEL= NONE

% Mathematical problem (DIRECT, CONTINUOUS_ADJOINT, DISCRETE_ADJOINT)
MATH_PROBLEM= DIRECT

% Restart solution (NO, YES)
RESTART_SOL = NO



%
% ---------------- INCOMPRESSIBLE FLOW CONDITION DEFINITION -------------------%
%
% Density model within the incompressible flow solver.
% Options are CONSTANT (default), BOUSSINESQ, or VARIABLE. If VARIABLE,
% an appropriate fluid model must be selected.

INC_DENSITY_MODEL= VARIABLE
 
% Solve the energy equation in the incompressible flow solver
INC_ENERGY_EQUATION = YES 


% Initial density for incompressible flows
% (1.2886 kg/m^3 by default (air), 998.2 Kg/m^3 (water))
INC_DENSITY_INIT= 1.1766

% Initial velocity for incompressible flows (1.0,0,0 m/s by default)
INC_VELOCITY_INIT= (1.00, 0.0, 0.0 )


% Initial temperature for incompressible flows that include the 
% energy equation (288.15 K by default). Value is ignored if 
% INC_ENERGY_EQUATION is false.
INC_TEMPERATURE_INIT= 300.0

% Non-dimensionalization scheme for incompressible flows. Options are
% INITIAL_VALUES (default), REFERENCE_VALUES, or DIMENSIONAL.
% INC_*_REF values are ignored unless REFERENCE_VALUES is chosen.
INC_NONDIM= DIMENSIONAL

% Damping coefficient for iterative updates at pressure inlets. (0.1 by default)
%INC_INLET_DAMPING= 0.1

% Damping coefficient for iterative updates at mass flow outlets. (0.1 by default)
%INC_OUTLET_DAMPING= 0.1

%
% -------------------- COMPRESSIBLE FREE-STREAM DEFINITION --------------------%
%
% Mach number (non-dimensional, based on the free-stream values)
MACH_NUMBER= 0.01

% Angle of attack (degrees, only for compressible flows)
AOA= 0.0

% Free-stream temperature (288.15 K by default)
FREESTREAM_TEMPERATURE = 300.0

% Free-stream pressure
FREESTREAM_PRESSURE = 101325.0 

% Free-stream density
FREESTREAM_DENSITY = 1.1766

FREESTREAM_VELOCITY = (0.0, 0.0, 0.0)

% Reynolds number (non-dimensional, based on the free-stream values)
REYNOLDS_NUMBER= 290000.0

% Reynolds length (1 m by default)
REYNOLDS_LENGTH= 1.0

% -------------------- FLUID MODEL --------------------------------------- %
%FLUID_MODEL = INC_IDEAL_GAS 
FLUID_MODEL = MIXTURE_FLUID_MODEL
%MIXTURE = YES

%MOLECULAR_WEIGHT= 16.0430, 28.014
%MOLECULAR_WEIGHT= 12.8252, 28.8507
MOLECULAR_WEIGHT= 16.043, 28.965 

SPECIFIC_HEAT_CP = 2224.43, 1009.39
%SPECIFIC_HEAT_CP = 1005, 1000

% --------------------------- THERMAL CONDUCTIVITY MODEL ----------------------%

% Laminar Conductivity model (CONSTANT_CONDUCTIVITY, CONSTANT_PRANDTL, 
% POLYNOMIAL_CONDUCTIVITY).
CONDUCTIVITY_MODEL= CONSTANT_CONDUCTIVITY

% Molecular Thermal Conductivity that would be constant (0.0257 by default)
KT_CONSTANT= 0.0357, 0.0258 

% Laminar Prandtl number (0.72 (air), only for CONSTANT_PRANDTL)
PRANDTL_LAM= 0.72, 0.72

% Temperature polynomial coefficients (up to quartic) for conductivity.
% Format -> Kt(T) : b0 + b1*T + b2*T^2 + b3*T^3 + b4*T^4
%KT_POLYCOEFFS= (0.0, 0.0, 0.0, 0.0, 0.0)

% Definition of the turbulent thermal conductivity model for RANS
% (CONSTANT_PRANDTL_TURB by default, NONE).
TURBULENT_CONDUCTIVITY_MODEL= NONE

% Turbulent Prandtl number (0.9 (air) by default)
PRANDTL_TURB= 0.90, 0.90

% -------------------- SCALAR TRANSPORT ---------------------------------------%

CONV_NUM_METHOD_SCALAR= SCALAR_UPWIND
KIND_SCALAR_MODEL= PASSIVE_SCALAR
%DIFFUSIVITY_CONSTANT = 1.0e-4
DIFFUSIVITY_MODEL = UNITY_LEWIS

MUSCL_SCALAR= YES

SLOPE_LIMITER_SCALAR = NONE

TIME_DISCRE_SCALAR= EULER_IMPLICIT

% SCALAR CLIPPING
SCALAR_CLIPPING= YES
SCALAR_INIT = 1
SCALAR_CLIPPING_MIN= 0.0
SCALAR_CLIPPING_MAX= 1.0


% -------------------- TURBULENT TRANSPORT ---------------------------------------%
CONV_NUM_METHOD_TURB= SCALAR_UPWIND
MUSCL_TURB= NO
%FREESTREAM_TURBULENCEINTENSITY= 0.02
%FREESTREAM_TURB2LAMVISCRATIO= 5.0

% --------------------------- VISCOSITY MODEL ---------------------------------%

% Viscosity model (SUTHERLAND, CONSTANT_VISCOSITY).
VISCOSITY_MODEL= CONSTANT_VISCOSITY

% Molecular Viscosity that would be constant (1.716E-5 by default)
MU_CONSTANT= 1.1102e-05, 1.8551e-05 

% Sutherland Viscosity Ref (1.716E-5 default value for AIR SI)
MU_REF= 1.118e-05, 1.795e-05

% Sutherland Temperature Ref (273.15 K default value for AIR SI)
MU_T_REF= 300, 300

% Sutherland constant (110.4 default value for AIR SI)
SUTHERLAND_CONSTANT= 187.78, 129.4

% Temperature polynomial coefficients (up to quartic) for viscosity.
% Format -> Mu(T) : b0 + b1*T + b2*T^2 + b3*T^3 + b4*T^4
%MU_POLYCOEFFS= (0.1, 0.1, 0.1, 0.1, 0.1)

% ---------------------- REFERENCE VALUE DEFINITION ---------------------------%

% Reference origin for moment computation
REF_ORIGIN_MOMENT_X = 0.25
REF_ORIGIN_MOMENT_Y = 0.00
REF_ORIGIN_MOMENT_Z = 0.00

% Reference length for pitching, rolling, and yawing non-dimensional moment
REF_LENGTH= 1.0

% Reference area for force coefficients (0 implies automatic calculation)
REF_AREA= 1.0

% -------------------- BOUNDARY CONDITION DEFINITION --------------------------%

% Navier-Stokes wall boundary marker(s) (NONE = no marker)

MARKER_HEATFLUX= ( wall, 0.0 )
MARKER_SYM= ( axis )
AXISYMMETRIC= NO

INC_INLET_TYPE=  VELOCITY_INLET VELOCITY_INLET VELOCITY_INLET

% Inlet boundary type 
MARKER_INLET_SCALAR = (gas_inlet, 1.0, air_axial_inlet, 0.0, air_radial_inlet, 0.0)
MARKER_INLET= ( gas_inlet, 300, 12.353484, 1.0, 0.0, 0.0, air_axial_inlet, 300, 1.7857917, 1.0, 0.0, 0.0, air_radial_inlet, 300, 6.9766378, 0.0, -1.0, 0.0 )

INC_OUTLET_TYPE= PRESSURE_OUTLET

MARKER_OUTLET= ( outlet, 0.0)

% ------------- COMMON PARAMETERS DEFINING THE NUMERICAL METHOD ---------------%

% Numerical method for spatial gradients (GREEN_GAUSS, WEIGHTED_LEAST_SQUARES)
%NUM_METHOD_GRAD= GREEN_GAUSS
NUM_METHOD_GRAD= WEIGHTED_LEAST_SQUARES

% Courant-Friedrichs-Lewy condition of the finest grid

CFL_NUMBER = 60

CFL_REDUCTION_SCALAR = 1.0
CFL_REDUCTION_TURB = 1.0
%RELAXATION_FACTOR_FLOW   = 1
%RELAXATION_FACTOR_SCALAR = 1

% Adaptive CFL number (NO, YES)
CFL_ADAPT= NO

% Parameters of the adaptive CFL number (factor down, factor up, CFL min value,
%                                        CFL max value )
CFL_ADAPT_PARAM= ( 1.5, 0.5, 1.0, 100.0 )


% Runge-Kutta alpha coefficients
RK_ALPHA_COEFF= ( 0.66667, 0.66667, 1.000000 )

% Number of total iterations
ITER= 50000

% Writing solution file frequency
OUTPUT_WRT_FREQ=1000
% ------------------------ LINEAR SOLVER DEFINITION ---------------------------%

% Linear solver for implicit formulations (BCGSTAB, FGMRES)
LINEAR_SOLVER= FGMRES

% Preconditioner of the Krylov linear solver (JACOBI, LINELET, LU_SGS)
LINEAR_SOLVER_PREC= ILU

% Minimum error of the linear solver for implicit formulations
LINEAR_SOLVER_ERROR= 1E-8

% Max number of iterations of the linear solver for the implicit formulation
LINEAR_SOLVER_ITER= 50 

% -------------------------- MULTIGRID PARAMETERS -----------------------------%

% Multi-Grid Levels (0 = no multi-grid)
MGLEVEL= 0

% Multi-grid cycle (V_CYCLE, W_CYCLE, FULLMG_CYCLE)
MGCYCLE= V_CYCLE

% Multi-grid pre-smoothing level
MG_PRE_SMOOTH= ( 1, 2, 3, 3 )

% Multi-grid post-smoothing level
MG_POST_SMOOTH= ( 0, 0, 0, 0 )

% Jacobi implicit smoothing of the correction
MG_CORRECTION_SMOOTH= ( 0, 0, 0, 0 )

% Damping factor for the residual restriction
MG_DAMP_RESTRICTION= 0.8

% Damping factor for the correction prolongation
MG_DAMP_PROLONGATION= 0.8

% -------------------- FLOW NUMERICAL METHOD DEFINITION -----------------------%

% Convective numerical method (JST, LAX-FRIEDRICH, CUSP, ROE, AUSM, HLLC,
%                              TURKEL_PREC, MSW)
CONV_NUM_METHOD_FLOW= FDS

% Monotonic Upwind Scheme for Conservation Laws (TVD) in the flow equations.
%           Required for 2nd order upwind schemes (NO, YES)
MUSCL_FLOW= YES

% Slope limiter (VENKATAKRISHNAN, MINMOD)
SLOPE_LIMITER_FLOW = NONE

% Coefficient for the limiter (smooth regions)
VENKAT_LIMITER_COEFF= 10.0

% 2nd and 4th order artificial dissipation coefficients
JST_SENSOR_COEFF= ( 0.5, 0.02 )

% Time discretization (RUNGE-KUTTA_EXPLICIT, EULER_IMPLICIT, EULER_EXPLICIT)
TIME_DISCRE_FLOW= EULER_IMPLICIT

% LOW MACH SOLVER
%LOW_MACH_CORR = YES
% --------------------------- CONVERGENCE PARAMETERS --------------------------%

% Convergence criteria (CAUCHY, RESIDUAL)
CONV_CRITERIA= RESIDUAL

CONV_FIELD = (RMS_PRESSURE, RMS_VELOCITY-X, RMS_VELOCITY-Y, RMS_TKE)

% Min value of the residual (log10 of the residual)
CONV_RESIDUAL_MINVAL = -10

% Start convergence criteria at iteration number
CONV_STARTITER= 10

% Number of elements to apply the criteria
CONV_CAUCHY_ELEMS= 100

% Epsilon to control the series convergence
CONV_CAUCHY_EPS= 1E-6

SCREEN_OUTPUT = INNER_ITER WALL_TIME RMS_PRESSURE RMS_VELOCITY-X RMS_VELOCITY-Y RMS_PASSIVE_SCALAR LINSOL_ITER LINSOL_RESIDUAL LINSOL_ITER_SCALAR LINSOL_RESIDUAL_SCALAR

%HISTORY_OUTPUT = RMS_RES AERO_COEFF FLOW_COEFF FLOW_COEFF_SURF
HISTORY_OUTPUT = RMS_RES MAX_RES FLOW_COEFF 

%FLAMELET_TABLE_OUTPUT = Conductivity ViscosityDyn Diffusivity Density

VOLUME_OUTPUT = DENSITY SOLUTION PRIMITIVE SOURCE RESIDUAL LOOKUP 


% ------------------------- INPUT/OUTPUT INFORMATION --------------------------%

% Mesh input file
MESH_FILENAME = C6_pneumatic_2D_mesh_with_patches.cgns 

% Mesh input file format (SU2, CGNS, NETCDF_ASCII)
MESH_FORMAT= CGNS

% Mesh output file
MESH_OUT_FILENAME= mesh_out.su2

% Restart flow input file
SOLUTION_FILENAME= initial_solution_venturi_conference.dat

% Restart adjoint input file
SOLUTION_ADJ_FILENAME= solution_adj.dat

% Output file format (PARAVIEW, PARAVIEW_BINARY, TECPLOT, STL)
OUTPUT_FILES = (RESTART, PARAVIEW, SURFACE_PARAVIEW) 
TABULAR_FORMAT = CSV

% Output file convergence history (w/o extension) 
CONV_FILENAME= history_conference

% Output file restart flow
RESTART_FILENAME= restart_venturi_conference.dat

% Output file restart adjoint
RESTART_ADJ_FILENAME= restart_adj.dat

% Output file flow (w/o extension) variables
VOLUME_FILENAME= flow_venturi_conference

% do not overwrite solution
WRT_SOL_OVERWRITE = NO

% Output file adjoint (w/o extension) variables
VOLUME_ADJ_FILENAME= adjoint

% Output objective function gradient (using continuous adjoint)
GRAD_OBJFUNC_FILENAME= of_grad.dat

% Output file surface flow coefficient (w/o extension)
SURFACE_FILENAME= surface_flow_venturi_conference

% Output file surface adjoint coefficient (w/o extension)
SURFACE_ADJ_FILENAME= surface_adjoint

%WRT_RESIDUALS = YES

WRT_PERFORMANCE = YES

% Writing convergence history frequency
%WRT_CON_FREQ= 1
