%%%%%%%%%%%%%%%%%%%%%%%%%%%%%%%%%%%%%%%%%%%%%%%%%%%%%%%%%%%%%%%%%%%%%%%%%%%%%%%%%%%%%%%%%%%%%%%%%%%%%%%%%%%%%%%%%%%%%%%%%%%%%%%%%
%                                                                              							%
% SU2 configuration file                                                       							%
% Case description: Composition dependent incompressible flow with variable fluid properties through axisymmetric venturi.	%
% 		    Mixing of methane and air.								 			%
% Author: Mark Heimgartner                                                    							%
% Institution: Bosch Thermotechniek Deventer                                   							%
% Date: 08/28/2021                                                             							%
% File Version 7.1.1 "Blackbird", branch: feature_multicomp                        						%
%                                                                              							%
%%%%%%%%%%%%%%%%%%%%%%%%%%%%%%%%%%%%%%%%%%%%%%%%%%%%%%%%%%%%%%%%%%%%%%%%%%%%%%%%%%%%%%%%%%%%%%%%%%%%%%%%%%%%%%%%%%%%%%%%%%%%%%%%%

% ------------- DIRECT, ADJOINT, AND LINEARIZED PROBLEM DEFINITION ------------%
%
% Physical governing equations (EULER, NAVIER_STOKES,
%                               WAVE_EQUATION, HEAT_EQUATION, FEM_ELASTICITY,
%                               POISSON_EQUATION)
SOLVER = INC_RANS 
        
% Specify turbulent model (NONE, SA, SA_NEG, SST)
KIND_TURB_MODEL = SST 

% Mathematical problem (DIRECT, CONTINUOUS_ADJOINT, DISCRETE_ADJOINT)
MATH_PROBLEM = DIRECT

% Restart solution (NO, YES)
RESTART_SOL = NO

% ---------------- INCOMPRESSIBLE FLOW CONDITION DEFINITION -------------------%
%
% Density model within the incompressible flow solver.
% Options are CONSTANT (default), BOUSSINESQ, or VARIABLE. If VARIABLE,
% an appropriate fluid model must be selected.
INC_DENSITY_MODEL = VARIABLE
 
% Solve the energy equation in the incompressible flow solver
INC_ENERGY_EQUATION = YES 

% Initial density for incompressible flows
% (1.2886 kg/m^3 by default (air), 998.2 Kg/m^3 (water))
INC_DENSITY_INIT = 1.1766

% Initial velocity for incompressible flows (1.0,0,0 m/s by default)
INC_VELOCITY_INIT = (1.00, 0.0, 0.0 )

% Initial temperature for incompressible flows that include the 
% energy equation (288.15 K by default). Value is ignored if 
% INC_ENERGY_EQUATION is false.
INC_TEMPERATURE_INIT = 300.0

% Non-dimensionalization scheme for incompressible flows. Options are
% INITIAL_VALUES (default), REFERENCE_VALUES, or DIMENSIONAL.
% INC_*_REF values are ignored unless REFERENCE_VALUES is chosen.
INC_NONDIM = DIMENSIONAL

% -------------------- FLUID MODEL --------------------------------------- %
%
% Fluid model (STANDARD_AIR, IDEAL_GAS, VW_GAS, PR_GAS,
%              CONSTANT_DENSITY, INC_IDEAL_GAS, INC_IDEAL_GAS_POLY, MUTATIONPP, SU2_NONEQ, MIXTURE_FLUID_MODEL)
FLUID_MODEL = MIXTURE_FLUID_MODEL

% Molecular weight for an incompressible ideal gas (28.96 g/mol (air) default)
MOLECULAR_WEIGHT= 16.043, 28.965 

% Specific heat at constant pressure, Cp (1004.703 J/kg*K (air)).
% Incompressible fluids with energy eqn. (CONSTANT_DENSITY, INC_IDEAL_GAS) and the heat equation.
SPECIFIC_HEAT_CP = 2224.43, 1009.39

% --------------------------- THERMAL CONDUCTIVITY MODEL ----------------------%
%
% Laminar Conductivity model (CONSTANT_CONDUCTIVITY, CONSTANT_PRANDTL, 
% POLYNOMIAL_CONDUCTIVITY).
CONDUCTIVITY_MODEL= CONSTANT_CONDUCTIVITY

% Molecular Thermal Conductivity that would be constant (0.0257 by default)
THERMAL_CONDUCTIVITY_CONSTANT= 0.0357, 0.0258 

% Laminar Prandtl number (0.72 (air), only for CONSTANT_PRANDTL)
PRANDTL_LAM= 0.72, 0.72

% Definition of the turbulent thermal conductivity model for RANS
% (CONSTANT_PRANDTL_TURB by default, NONE).
TURBULENT_CONDUCTIVITY_MODEL= NONE

% Turbulent Prandtl number (0.9 (air) by default)
PRANDTL_TURB= 0.90, 0.90

% -------------------- SCALAR TRANSPORT ---------------------------------------%
%
% Convective numerical method (SCALAR_UPWIND)
CONV_NUM_METHOD_SCALAR= SCALAR_UPWIND

% Specify scalar transport model (NONE, PASSIVE_SCALAR, PROGRESS_VARIABLE)
KIND_SCALAR_MODEL= PASSIVE_SCALAR

% Specify mass diffusivity model (CONSTANT_DIFFUSIVITY, CONSTANT_SCHMIDT, FLAMELET, UNITY_LEWIS)
%DIFFUSIVITY_MODEL = UNITY_LEWIS

% Monotonic Upwind Scheme for Conservation Laws (TVD) in the scalar transport equations.
MUSCL_SCALAR= NO

% Slope limiter (NONE, VENKATAKRISHNAN, VENKATAKRISHNAN_WANG,
%                BARTH_JESPERSEN, VAN_ALBADA_EDGE)
SLOPE_LIMITER_SCALAR = NONE

% Time discretization for scalar transport problems (EULER_IMPLICIT)
TIME_DISCRE_SCALAR= EULER_IMPLICIT

% Scalar clipping 
SCALAR_CLIPPING= NO
SCALAR_INIT = 0
SCALAR_CLIPPING_MIN= 0.0
SCALAR_CLIPPING_MAX= 1.0

% -------------------- TURBULENT TRANSPORT ---------------------------------------%
%
% Convective numerical method (SCALAR_UPWIND)
CONV_NUM_METHOD_TURB= SCALAR_UPWIND

% Monotonic Upwind Scheme for Conservation Laws (TVD) in the turbulence equations.
%           Required for 2nd order upwind schemes (NO, YES)
MUSCL_TURB= NO

% --------------------------- VISCOSITY MODEL ---------------------------------%
%
% Viscosity model (SUTHERLAND, CONSTANT_VISCOSITY, POLYNOMIAL_VISCOSITY).
VISCOSITY_MODEL= CONSTANT_VISCOSITY

% Molecular Viscosity that would be constant (1.716E-5 by default)
MU_CONSTANT= 1.1102e-05, 1.8551e-05 

% -------------------- BOUNDARY CONDITION DEFINITION --------------------------%
%
% Navier-Stokes (no-slip), constant heat flux wall  marker(s) (NONE = no marker)
% Format: ( marker name, constant heat flux (J/m^2), ... )
MARKER_HEATFLUX= ( wall, 0.0 )

% Symmetry boundary marker(s) (NONE = no marker)
% Implementation identical to MARKER_EULER.
MARKER_SYM= ( axis )

% Axisymmetric simulation, only compressible flows (NO, YES)
AXISYMMETRIC= YES

% List of inlet types for incompressible flows. List length must
% match number of inlet markers. Options: VELOCITY_INLET, PRESSURE_INLET.
INC_INLET_TYPE=  VELOCITY_INLET VELOCITY_INLET VELOCITY_INLET

% Inlet inlet scalar: (inlet marker, scalar initialisation value) 
MARKER_INLET_SCALAR = (gas_inlet, 1.0, air_axial_inlet, 0.0, air_radial_inlet, 0.0)

% Inc. Velocity: (inlet marker, temperature, velocity magnitude, flow_direction_x,
%           flow_direction_y, flow_direction_z, ... ) where flow_direction is
%           a unit vector.
MARKER_INLET= ( gas_inlet, 300, 12.3, 1.0, 0.0, 0.0, air_axial_inlet, 300, 2.2, 1.0, 0.0, 0.0, air_radial_inlet, 300, 4.9, 0.0, -1.0, 0.0 )

% List of outlet types for incompressible flows. List length must
% match number of outlet markers. Options: PRESSURE_OUTLET, MASS_FLOW_OUTLET
INC_OUTLET_TYPE= PRESSURE_OUTLET

% Outlet boundary marker(s) (NONE = no marker)
% Compressible: ( outlet marker, back pressure (static thermodynamic), ... )
% Inc. Pressure: ( outlet marker, back pressure (static gauge in Pa), ... )
% Inc. Mass Flow: ( outlet marker, mass flow target (kg/s), ... )
MARKER_OUTLET= ( outlet, 0.0)

% Marker(s) of the surface that is going to be analyzed in detail (massflow, average pressure, distortion, etc)
MARKER_ANALYZE = ( outlet )

% Method to compute the average value in MARKER_ANALYZE (AREA, MASSFLUX).
MARKER_ANALYZE_AVERAGE = MASSFLUX

% ------------- COMMON PARAMETERS DEFINING THE NUMERICAL METHOD ---------------%
%
% Numerical method for spatial gradients (GREEN_GAUSS, WEIGHTED_LEAST_SQUARES)
NUM_METHOD_GRAD= WEIGHTED_LEAST_SQUARES

% Courant-Friedrichs-Lewy condition of the finest grid
CFL_NUMBER = 100

% Reduction factor of the CFL coefficient in the scalar transport problem
CFL_REDUCTION_SCALAR = 1.0

% Reduction factor of the CFL coefficient in the turbulence problem
CFL_REDUCTION_TURB = 1.0

% Adaptive CFL number (NO, YES)
CFL_ADAPT= NO

% Parameters of the adaptive CFL number (factor down, factor up, CFL min value,
%                                        CFL max value )
CFL_ADAPT_PARAM= ( 1.5, 0.5, 1.0, 100.0 )

% Runge-Kutta alpha coefficients
RK_ALPHA_COEFF= ( 0.66667, 0.66667, 1.000000 )

% Number of total iterations
ITER= 50000

% Writing solution file frequency
OUTPUT_WRT_FREQ=1000

% ------------------------ LINEAR SOLVER DEFINITION ---------------------------%
%
% Linear solver for implicit formulations (BCGSTAB, FGMRES)
LINEAR_SOLVER= FGMRES

% Preconditioner of the Krylov linear solver (JACOBI, LINELET, LU_SGS)
LINEAR_SOLVER_PREC= ILU

% Minimum error of the linear solver for implicit formulations
LINEAR_SOLVER_ERROR= 1E-3

% Max number of iterations of the linear solver for the implicit formulation
LINEAR_SOLVER_ITER= 20

% -------------------- FLOW NUMERICAL METHOD DEFINITION -----------------------%
%
% Convective numerical method (JST, LAX-FRIEDRICH, CUSP, ROE, AUSM, HLLC,
%                              TURKEL_PREC, MSW)
CONV_NUM_METHOD_FLOW= FDS

% Monotonic Upwind Scheme for Conservation Laws (TVD) in the flow equations.
%           Required for 2nd order upwind schemes (NO, YES)
MUSCL_FLOW= YES

% Slope limiter (VENKATAKRISHNAN, MINMOD)
SLOPE_LIMITER_FLOW = NONE

% Coefficient for the limiter (smooth regions)
VENKAT_LIMITER_COEFF= 10.0

% 2nd and 4th order artificial dissipation coefficients
JST_SENSOR_COEFF= ( 0.5, 0.02 )

% Time discretization (RUNGE-KUTTA_EXPLICIT, EULER_IMPLICIT, EULER_EXPLICIT)
TIME_DISCRE_FLOW= EULER_IMPLICIT

% --------------------------- CONVERGENCE PARAMETERS --------------------------%
%
% Convergence criteria (CAUCHY, RESIDUAL)
CONV_CRITERIA= RESIDUAL

CONV_FIELD = (RMS_PRESSURE, RMS_VELOCITY-X, RMS_VELOCITY-Y, RMS_TKE)

% Min value of the residual (log10 of the residual)
CONV_RESIDUAL_MINVAL = -10

% Start convergence criteria at iteration number
CONV_STARTITER= 10

% Number of elements to apply the criteria
CONV_CAUCHY_ELEMS= 100

% Epsilon to control the series convergence
CONV_CAUCHY_EPS= 1E-6

SCREEN_OUTPUT = INNER_ITER WALL_TIME RMS_PRESSURE RMS_VELOCITY-X RMS_VELOCITY-Y RMS_PASSIVE_SCALAR LINSOL_ITER LINSOL_RESIDUAL LINSOL_ITER_SCALAR LINSOL_RESIDUAL_SCALAR

HISTORY_OUTPUT = RMS_RES MAX_RES FLOW_COEFF FLOW_COEFF_SURF 

VOLUME_OUTPUT = DENSITY SOLUTION PRIMITIVE SOURCE RESIDUAL 

% ------------------------- INPUT/OUTPUT INFORMATION --------------------------%
%
% Mesh input file
MESH_FILENAME = C6_pneumatic_venturi_planar_mesh.cgns 

% Mesh input file format (SU2, CGNS, NETCDF_ASCII)
MESH_FORMAT= CGNS

% Mesh output file
MESH_OUT_FILENAME= mesh_out.su2

% Restart flow input file
SOLUTION_FILENAME= initial_solution.dat

% Restart adjoint input file
SOLUTION_ADJ_FILENAME= solution_adj.dat

% Output file format (PARAVIEW, PARAVIEW_BINARY, TECPLOT, STL)
OUTPUT_FILES = (RESTART, PARAVIEW, SURFACE_PARAVIEW) 
TABULAR_FORMAT = CSV

% Output file convergence history (w/o extension) 
CONV_FILENAME= history

% Output file restart flow
RESTART_FILENAME= restart.dat

% Output file restart adjoint
RESTART_ADJ_FILENAME= restart_adj.dat

% Output file flow (w/o extension) variables
VOLUME_FILENAME= flow

% Overwrite solution and visualization files or not
WRT_SOL_OVERWRITE = NO

% Output file adjoint (w/o extension) variables
VOLUME_ADJ_FILENAME= adjoint

% Output objective function gradient (using continuous adjoint)
GRAD_OBJFUNC_FILENAME= of_grad.dat

% Output file surface flow coefficient (w/o extension)
SURFACE_FILENAME= surface_flow

% Output file surface adjoint coefficient (w/o extension)
SURFACE_ADJ_FILENAME= surface_adjoint

% Write the performance summary at the end of a calculation.
WRT_PERFORMANCE = YES