%%%%%%%%%%%%%%%%%%%%%%%%%%%%%%%%%%%%%%%%%%%%%%%%%%%%%%%%%%%%%%%%%%%%%%%%%%%%%%%%
%                                                                              %
% Stanford University unstructured (SU2) configuration file                    %
% Case description: Inviscid, hypersonic flow over a bullet                    %
% Author: Amrita Lonkar 	                                               %
% Institution: Stanford University                                             %
% Date: 2012.02.16                                                             %
%                                                                              %
%%%%%%%%%%%%%%%%%%%%%%%%%%%%%%%%%%%%%%%%%%%%%%%%%%%%%%%%%%%%%%%%%%%%%%%%%%%%%%%%

% ------------- DIRECT, ADJOINT, AND LINEARIZED PROBLEM DEFINITION ------------%
%
% Physical governing equations (POTENTIAL_FLOW, EULER, NAVIER_STOKES, 
%                               MULTI_SPECIES_NAVIER_STOKES, TWO_PHASE_FLOW, 
%                               COMBUSTION)
PHYSICAL_PROBLEM= PLASMA_NAVIER_STOKES
%
% If Navier-Stokes, kind of turbulent model (NONE, SA)
KIND_TURB_MODEL= NONE
%
% Mathematical problem (DIRECT, ADJOINT, LINEARIZED, ONE_SHOT_ADJOINT)
MATH_PROBLEM= DIRECT

% Unsteady simulation (NO, TIME_STEPPING, DUAL_TIME_STEPPING)
UNSTEADY_SIMULATION= NO

% Specify chemical model for multi-species simulations (ARGON, AIR-7)
GAS_MODEL= ARGON

% ----------- COMPRESSIBLE AND INCOMPRESSIBLE FREE-STREAM DEFINITION ----------%
%
% Mach number (non-dimensional, based on the free-stream values)
MACH_NUMBER= 4.6
%
% Angle of attack (degrees)
AoA= 0.0
%
% Side-slip angle (degrees)
SIDESLIP_ANGLE= 0.0
%
% Free-stream pressure (101325.0 N/m^2 by default, only Euler flows)  
FREESTREAM_PRESSURE= 28.0
%
% Free-stream temperature (273.15 K by default)
FREESTREAM_TEMPERATURE= 810.0

FREESTREAM_SPECIES_TEMPERATURE= (810.0, 810.0, 3900.0)

GAS_COMPOSITION= (0.98, 0.01, 0.01)

% Adiabatic wall boundary condition
ADIABATIC_WALL= NO

ISOTHERMAL_WALL= NO

CATALYTIC_WALL= YES

PLASMA_MULTI_TIME_STEP= YES
% -------------- COMPRESSIBLE AND INCOMPRESSIBLE FLUID CONSTANTS --------------%
%
% Ratio of specific heats (1.4 (air), only for compressible flows)
GAMMA_VALUE= 1.6666667

% Ratio of specific heats (1.4 (air), only for compressible flows)
GAMMA_MONATOMIC_VALUE= 1.6666667

%
% Specific gas constant (287.87 J/kg*K (air), only for compressible flows)
GAS_CONSTANT= 208.0

MIXTURE_MOLAR_MASS= 39.93

% Restart solution (NO, YES)
RESTART_SOL= NO 

% Block diagonal structure of Jacobian (NO, YES)
BLOCK_DIAGONAL_JACOBIAN= NO

% ---------------------- REFERENCE VALUE DEFINITION ---------------------------%
%
% Conversion factor for converting the grid to meters
CONVERT_TO_METER= 1.0
%
% Reference origin for moment computation
REF_ORIGIN_MOMENT= ( 0.25, 0.00, 0.00 )
%
% Reference length for pitching, rolling, and yawing non-dimensional moment
REF_LENGTH_MOMENT= 1.0
%
% Reference area for force coefficients (0 implies automatic calculation)
REF_AREA= 1.0
%
% Reference pressure (101325.0 N/m^2 by default)
REF_PRESSURE= 1.0
%
% Reference temperature (273.15 K by default)
REF_TEMPERATURE= 1.0
%
% Reference density (1.2886 Kg/m^3 (air), 998.2 Kg/m^3 (water)) 
REF_DENSITY= 1.0

% Reference temperature (273.15 K by default)
PARTICLE_REFERENCE_TEMPERATURE= ( 1.0, 1.0, 1.0 )

% Reference viscosity (1.853E-5 Ns/m^2 (air), 0.798E-3 Ns/m^2 (water),
%                      only for incompressible)
PARTICLE_REFERENCE_VISCOSITY= ( 1.0, 1.0, 1.0)

% -------------------- BOUNDARY CONDITION DEFINITION --------------------------%
%
% Navier-Stokes wall boundary marker(s) (NONE = no marker)
MARKER_HEATFLUX= ( BulletHead, Cylinder )

% Symmetry boundary marker(s) (NONE = no marker)
MARKER_SYM= ( Sidewall1, Sidewall2)
%
% Farfield boundary marker(s) (NONE = no marker)
MARKER_FAR= ( Inlet, Exit )

% Marker(s) of the surface to be plotted or designed
MARKER_PLOTTING= ( BulletHead )
%
% Marker(s) of the surface where the functional (Cd, Cl, etc.) will be evaluated
MARKER_MONITORING= ( BulletHead )

% ------------- COMMON PARAMETERS DEFINING THE NUMERICAL METHOD ---------------%
%
% Numerical method for spatial gradients (GREEN_GAUSS, LEAST_SQUARES, 
%                                         WEIGHTED_LEAST_SQUARES)
NUM_METHOD_GRAD= GREEN_GAUSS
%
% Courant-Friedrichs-Lewy condition of the finest grid
CFL_NUMBER= 0.5
%
% CFL ramp (factor, number of iterations, CFL limit)
CFL_RAMP= ( 1.1, 100, 8.0 )
%
% Runge-Kutta alpha coefficients
RK_ALPHA_COEFF= ( 0.66667, 0.66667, 1.000000 )
%
% Runge-Kutta beta coefficients
RK_BETA_COEFF= ( 1.00000, 0.00000, 0.00000 )
%
% Number of total iterations
EXT_ITER= 5
%
% -------------------------- MULTIGRID PARAMETERS -----------------------------%
%
% Full Multigrid (NO, YES)
FULLMG= NO
%
% Start up iterations using the fine grid
START_UP_ITER= 0
%
% Multi-Grid Levels (0 = no multi-grid)
MGLEVEL= 0 
%
% Multi-Grid Cycle (0 = V cycle, 1 = W Cycle)
MGCYCLE= 1
%
% CFL reduction factor on the coarse levels
MG_CFL_REDUCTION= 0.8
%
% Maximum number of children in the agglomeration stage
MAX_CHILDREN= 50
%
% Maximum length of an agglomerated element (relative to the domain)
MAX_DIMENSION= 0.1
%
% Multigrid pre-smoothing level
MG_PRE_SMOOTH= ( 1, 1, 1, 1 )
%
% Multigrid post-smoothing level
MG_POST_SMOOTH= ( 1, 1, 1, 1 )
%
% Jacobi implicit smoothing of the correction
MG_CORRECTION_SMOOTH= ( 1, 1, 1, 1 )
%
% Damping factor for the residual restriction
MG_DAMP_RESTRICTION= 0.85
%
% Damping factor for the correction prolongation
MG_DAMP_PROLONGATION= 0.85
%
% Restart Multigrid cycle with the interpolated solution (NO, YES)
MG_RESTART_CYCLE= YES

% --------------------- PLASMA NUMERICAL METHOD DEFINITION --------------------%

% Number of species present in the plasma
NUMBER_OF_SPECIES_IN_PLASMA= 3

NUMBER_OF_CHEMICAL_REACTIONS= 1

% Mass of each species present in the plasma in kg
PARTICLE_MASS= ( 6.63053168E-26, 6.6304405861812E-026, 9.10938188E-31 )

MAGNETIC_DIPOLE= (0.0, 0.0, 0.0 )

% Convective numerical method (JST, LAX-FRIEDRICH, ROE-1ST_ORDER,
%                              ROE-2ND_ORDER)
CONV_NUM_METHOD_PLASMA= ROE-1ST_ORDER
%
% Viscous numerical method (AVG_GRAD, AVG_GRAD_CORRECTED, GALERKIN)
VISC_NUM_METHOD_PLASMA= AVG_GRAD

% Time discretization (RUNGE-KUTTA_EXPLICIT, EULER_IMPLICIT, EULER_EXPLICIT)
TIME_DISCRE_PLASMA= EULER_IMPLICIT

% Source numerical method for flow equations in plasma(PIECEWISE_CONS)
SOUR_NUM_METHOD_PLASMA= PIECEWISE_CONSTANT

% Source numerical method for the electrostatic equation in plasma(PIECEWISE_CONSTANT)
SOUR_NUM_METHOD_ELEC= NONE  PIECEWISE_CONSTANT

% viscous numerical method for the electrostatic equation in plasma(PIECEWISE_CONSTANT)=
VISC_NUM_METHOD_ELEC= GALERKIN

LINEAR_SOLVER= LU_SGS SYM_GAUSS_SEIDEL
%
% --------------------------- PARTITIONING STRATEGY ---------------------------%
%
% Number of partitions of the domain
NUMBER_PART= 0
%
% Write a paraview file for each partition (NO, YES)
VISUALIZE_PART= NO

%
% ------------------------- GRID ADAPTATION STRATEGY --------------------------%
% Number of adaptation cycles
CYCLE_ADAPT= 0
%
% Percentage of new elements (% of the original number of elements)
NEW_ELEMS= 5
%
% Kind of grid adaptation (NONE, FULL, FULL_FLOW, GRAD_FLOW, FULL_ADJOINT,
%                          GRAD_ADJOINT, GRAD_FLOW_ADJ, ROBUST,
%                          FULL_LINEAR, COMPUTABLE, COMPUTABLE_ROBUST,
%                          REMAINING, WAKE, HORIZONTAL_PLANE, SMOOTHING,
%                          SUPERSONIC_SHOCK, TWOPHASE, CURVE_SURFACE)
KIND_ADAPT= FULL_FLOW
%
% Scale factor for the dual volume
DUALVOL_POWER= 0.5
%
% Position of the horizontal plane (y coord for 2D, and z coord for 3D)
HORIZONTAL_PLANE_POSITION= -1.0
%
% Marker for the new plane bondaries ( upper, lower )
HORIZONTAL_PLANE_MARKER= ( 9, 10 )
%
% Use analytical definition for surfaces (NONE, NACA0012_AIRFOIL, BIPARABOLIC,
%                                         NACA4412_AIRFOIL, CYLINDER)
ANALYTICAL_SURFDEF= NONE
%
% Before each computation do an implicit smoothing of the nodes coord (NO, YES)
SMOOTH_GEOMETRY= NO

% --------------------------- CONVERGENCE PARAMETERS --------------------------%
%
% Convergence criteria (CAUCHY, RESIDUAL)
%
CONV_CRITERIA= RESIDUAL
%
% Residual reduction (order of magnitude with respect to the initial value)
RESIDUAL_REDUCTION= 6
%
% Min value of the residual (log10 of the residual)
RESIDUAL_MINVAL= -22
%
% Start convergence criteria at iteration number
STARTCONV_ITER= 10
%
% Number of elements to apply the criteria
CAUCHY_ELEMS= 100
%
% Epsilon to control the series convergence
CAUCHY_EPS= 1E-10
%
% Function to apply the criteria (LIFT, DRAG, NEARFIELD_PRESS, SENS_GEOMETRY, 
% 	      	    		 SENS_MACH, DELTA_LIFT, DELTA_DRAG)
CAUCHY_FUNC_FLOW= DRAG
CAUCHY_FUNC_ADJ= SENS_GEOMETRY
CAUCHY_FUNC_LIN= DELTA_DRAG
%
% Epsilon for One-Shot method evaluation
ONESHOT_CAUCHY_EPS= 1E-5
%
% Epsilon for full multigrid method evaluation
FULLMG_CAUCHY_EPS= 1E-4

% ------------------------- INPUT/OUTPUT INFORMATION --------------------------%
%
% Mesh input file
MESH_FILENAME= mesh_plasma_argon_3D.su2
%
% Mesh input file format (SU2, CGNS, NETCDF_ASCII)
MESH_FORMAT= SU2
%
% Convert a CGNS mesh to SU2 format (YES, NO)
CGNS_TO_SU2= NO
%
% Mesh output file
MESH_OUT_FILENAME= meshout.su2
%
% Restart flow input file
SOLUTION_FLOW_FILENAME= restart_in.dat 
%
% Restart linear flow input file
SOLUTION_LIN_FILENAME= solution_lin.dat
%
% Restart adjoint input file
SOLUTION_ADJ_FILENAME= solution_adj.dat
%
% Output file format (PARAVIEW, TECPLOT)
OUTPUT_FORMAT= TECPLOT
%
% Output file convergence history (w/o extension) 
CONV_FILENAME= history
%
% Output file restart flow
RESTART_FLOW_FILENAME= restart.dat 
%
% Output file restart adjoint
RESTART_ADJ_FILENAME= restart_adj.dat
%
% Output file linear flow
RESTART_LIN_FILENAME= restart_lin.dat
%
% Output file flow (w/o extension) variables
VOLUME_FLOW_FILENAME= solution
%
% Output file adjoint (w/o extension) variables
VOLUME_ADJ_FILENAME= adjoint
%
% Output file linearized (w/o extension) variables
VOLUME_LIN_FILENAME= linearized
%
% Output objective function gradient (using continuous adjoint)
GRAD_OBJFUNC_FILENAME= of_grad.dat
%
% Output file surface flow coefficient (w/o extension)
SURFACE_FLOW_FILENAME= surface
%
% Output file surface adjoint coefficient (w/o extension)
SURFACE_ADJ_FILENAME= surface_adjoint
%
% Output file surface linear coefficient (w/o extension)
SURFACE_LIN_FILENAME= surface_linear
%
% Writing solution file frequency
WRT_SOL_FREQ= 250
%
% Writing convergence history frequency
WRT_CON_FREQ= 1

