%%%%%%%%%%%%%%%%%%%%%%%%%%%%%%%%%%%%%%%%%%%%%%%%%%%%%%%%%%%%%%%%%%%%%%%%%%%%%%%%
%                                                                              %
% SU2 configuration file                                                       %
% Case description: Mach 5 viscous flow over a 10deg wedge with partially      %
%                   catalytic walls - gamma model, effeciency = 0.2            %
% Author: J. Needels                                                           %
% Institution: Stanford University                                             %
% File Version 8.0.0 "Harrier"                                                 %
%                                                                              %
%%%%%%%%%%%%%%%%%%%%%%%%%%%%%%%%%%%%%%%%%%%%%%%%%%%%%%%%%%%%%%%%%%%%%%%%%%%%%%%%

% ------------- DIRECT, ADJOINT, AND LINEARIZED PROBLEM DEFINITION ------------%
%
SOLVER= NEMO_NAVIER_STOKES
GAS_MODEL= AIR-5
GAS_COMPOSITION= (0.77, 0.23, 0.0, 0.0, 0.0)
MATH_PROBLEM= DIRECT
RESTART_SOL= NO
AXISYMMETRIC= NO

% ----------- COMPRESSIBLE AND INCOMPRESSIBLE FREE-STREAM DEFINITION ----------%
%
MACH_NUMBER= 5
AOA= 0.0
SIDESLIP_ANGLE= 0.0
INIT_OPTION= TD_CONDITIONS
FREESTREAM_PRESSURE= 10.0
FREESTREAM_TEMPERATURE= 288.15
FREESTREAM_TEMPERATURE_VE= 288.15
REYNOLDS_NUMBER= 10000
KIND_TURB_MODEL= NONE

% ---- NONEQUILIBRIUM GAS, IDEAL GAS, POLYTROPIC, VAN DER WAALS AND PENG ROBINSON CONSTANTS -------%
%
FLUID_MODEL= SU2_NONEQ

% -------------------- BOUNDARY CONDITION DEFINITION --------------------------%
%
MARKER_EULER= ( Euler)
MARKER_ISOTHERMAL= (Wall, 300)
MARKER_OUTLET= ( Exit, 5 )
MARKER_FAR= ( Farfield, Inlet )

CATALYTIC_WALL= (wall)
SUPERCATALYTIC_WALL= YES
SUPERCATALYTIC_WALL_COMPOSITION= (0.77, 0.23, 0.0, 0.0, 0.0)

MARKER_PLOTTING= (NONE )
MARKER_MONITORING= ( Wall )

% ------------- COMMON PARAMETERS DEFINING THE NUMERICAL METHOD ---------------%
%
NUM_METHOD_GRAD= WEIGHTED_LEAST_SQUARES
CFL_NUMBER= 3.0
ITER= 11
LINEAR_SOLVER= BCGSTAB
LINEAR_SOLVER_ERROR= 1E-6
LINEAR_SOLVER_ITER= 5

% -----------------------------------------------------------------------%
%
CONV_NUM_METHOD_FLOW= AUSM
MUSCL_FLOW= NO
TIME_DISCRE_FLOW= EULER_IMPLICIT

% --------------------------- CONVERGENCE PARAMETERS --------------------------%
%
CONV_RESIDUAL_MINVAL= -15
CONV_STARTITER= 10

% ------------------------- INPUT/OUTPUT INFORMATION --------------------------%
%
MESH_FILENAME= viscwedge.su2
MESH_FORMAT= SU2
SOLUTION_FILENAME= restart_flow.dat  
TABULAR_FORMAT= TECPLOT
CONV_FILENAME= convergence
RESTART_FILENAME= restart_flow.dat
VOLUME_FILENAME= soln_volume
SURFACE_FILENAME= soln_surface     
OUTPUT_WRT_FREQ= 100
OUTPUT_FILES= (RESTART_ASCII, PARAVIEW_ASCII)
SCREEN_OUTPUT= (INNER_ITER, RMS_DENSITY_0, RMS_DENSITY_1, RMS_DENSITY_2, RMS_DENSITY_3, RMS_DENSITY_4, RMS_ENERGY, RMS_ENERGY_VE, LIFT, DRAG, TOTAL_HEATFLUX)