%%%%%%%%%%%%%%%%%%%%%%%%%%%%%%%%%%%%%%%%%%%%%%%%%%%%%%%%%%%%%%%%%%%%%%%%%%%%%%%%
%                                                                              %
% SU2 configuration file                                                       %
% Case description: bars in a 2D channel with interface                        %
% Author: A. Rubino                                                            %
% Institution: Delft University of Technology                                  %
% Date: Feb 27th, 2017                                                         %
% File Version 8.0.0 "Harrier"                                                 %
%                                                                              %
%%%%%%%%%%%%%%%%%%%%%%%%%%%%%%%%%%%%%%%%%%%%%%%%%%%%%%%%%%%%%%%%%%%%%%%%%%%%%%%%
%
MULTIZONE=YES
%
TIME_DOMAIN = NO
TIME_ITER = 3
TIME_STEP = 0.005
INNER_ITER= 1
OUTER_ITER = 100
%
% ------------- DIRECT, ADJOINT, AND LINEARIZED PROBLEM DEFINITION ------------%
%
SOLVER= RANS
KIND_TURB_MODEL= SST
MATH_PROBLEM= DIRECT
RESTART_SOL= NO
%
% -------------------- COMPRESSIBLE FREE-STREAM DEFINITION --------------------%
%
MACH_NUMBER= 0.3
AOA= 0.0
FREESTREAM_PRESSURE= 0.1686e5
FREESTREAM_TEMPERATURE= 313.15
FREESTREAM_DENSITY= 1.2886
FREESTREAM_OPTION= TEMPERATURE_FS
FREESTREAM_TURBULENCEINTENSITY = 0.025
FREESTREAM_TURB2LAMVISCRATIO = 100.0
INIT_OPTION= TD_CONDITIONS

% ---------------------- REFERENCE VALUE DEFINITION ---------------------------%
%
REF_ORIGIN_MOMENT_X = 0.25
REF_ORIGIN_MOMENT_Y = 0.00
REF_ORIGIN_MOMENT_Z = 0.00
REF_LENGTH= 1.0
REF_AREA= 1.0
REF_DIMENSIONALIZATION= DIMENSIONAL

% ---- IDEAL GAS, POLYTROPIC, VAN DER WAALS AND PENG ROBINSON CONSTANTS -------%
%
FLUID_MODEL= STANDARD_AIR
GAMMA_VALUE= 1.4
GAS_CONSTANT= 35.23
CRITICAL_TEMPERATURE= 564.1
CRITICAL_PRESSURE= 1415000
CRITICAL_DENSITY= 256.74
ACENTRIC_FACTOR= 0.529

% --------------------------- VISCOSITY MODEL ---------------------------------%
%
VISCOSITY_MODEL= CONSTANT_VISCOSITY
MU_CONSTANT= 1.0461E-5
MU_REF= 1.716E-5
MU_T_REF= 273.15
SUTHERLAND_CONSTANT= 110.4

% --------------------------- THERMAL CONDUCTIVITY MODEL ----------------------%
%
CONDUCTIVITY_MODEL= CONSTANT_PRANDTL
THERMAL_CONDUCTIVITY_CONSTANT= 0.028085

% -------------------- BOUNDARY CONDITION DEFINITION --------------------------%
%
MARKER_ZONE_INTERFACE= (outflow_bars, inflow_channel)
MARKER_FLUID_INTERFACE= (outflow_bars, inflow_channel)
MARKER_HEATFLUX= ( wall1_bars, 0.0 )
INLET_TYPE= TOTAL_CONDITIONS
MARKER_RIEMANN= ( inflow_bars, TOTAL_CONDITIONS_PT, 0.1886e5, 313.15, 1.0, 0.0, 0.0, outflow_channel, STATIC_PRESSURE, 0.1487e5, 0.0, 0.0, 0.0, 0.0)
MARKER_PERIODIC= ( periodic1_bars, periodic2_bars, 0.0, 0.0, 0.0, 0.0, 0.0, 0.0, 0.0, .105, 0.0, periodic1_channel, periodic2_channel, 0.0, 0.0, 0.0, 0.0, 0.0, 0.0, 0.0, .105, 0.0  )
MARKER_PLOTTING= ( wall1_bars )
MARKER_MONITORING= ( wall1_bars )

% ------------- COMMON PARAMETERS DEFINING THE NUMERICAL METHOD ---------------%
%
NUM_METHOD_GRAD= WEIGHTED_LEAST_SQUARES
CFL_NUMBER= 1.0
CFL_ADAPT= NO
CFL_ADAPT_PARAM= ( 1.5, 0.5, 0.3,20.0 )
LINEAR_SOLVER= FGMRES
LINEAR_SOLVER_PREC= LU_SGS
LINEAR_SOLVER_ERROR= 1E-4
LINEAR_SOLVER_ITER= 20

% -------------------------- MULTIGRID PARAMETERS -----------------------------%
%
MGLEVEL= 3
MG_PRE_SMOOTH= ( 1, 2, 3, 3 )
MG_POST_SMOOTH= ( 0, 0, 0, 0 )
MG_CORRECTION_SMOOTH= ( 0, 0, 0, 0 )
MG_DAMP_RESTRICTION= 0.75
MG_DAMP_PROLONGATION= 0.75

% -------------------- FLOW NUMERICAL METHOD DEFINITION -----------------------%
%
CONV_NUM_METHOD_FLOW= JST
VENKAT_LIMITER_COEFF= 0.02
TIME_DISCRE_FLOW= EULER_IMPLICIT

% -------------------- TURBULENT NUMERICAL METHOD DEFINITION ------------------%
%
CONV_NUM_METHOD_TURB= SCALAR_UPWIND
MUSCL_TURB= YES
SLOPE_LIMITER_TURB= NONE
TIME_DISCRE_TURB= EULER_IMPLICIT
CFL_REDUCTION_TURB= 1.0

% --------------------------- CONVERGENCE PARAMETERS --------------------------%
%
CONV_RESIDUAL_MINVAL= -16
CONV_STARTITER= 10
CONV_CAUCHY_ELEMS= 100
CONV_CAUCHY_EPS= 1E-6

% ------------------------- INPUT/OUTPUT INFORMATION --------------------------%
%
MESH_FILENAME= mesh_bars_turb.su2
MESH_FORMAT= SU2
MESH_OUT_FILENAME= mesh_out.su2
SOLUTION_FILENAME= restart_flow.dat
SOLUTION_ADJ_FILENAME= solution_adj.dat
TABULAR_FORMAT= CSV
CONV_FILENAME= history
RESTART_FILENAME= restart_flow.dat
RESTART_ADJ_FILENAME= restart_adj.dat
VOLUME_FILENAME= flow
VOLUME_ADJ_FILENAME= adjoint
GRAD_OBJFUNC_FILENAME= of_grad.dat
SURFACE_FILENAME= surface_flow
SURFACE_ADJ_FILENAME= surface_adjoint
OUTPUT_WRT_FREQ= 50
