%%%%%%%%%%%%%%%%%%%%%%%%%%%%%%%%%%%%%%%%%%%%%%%%%%%%%%%%%%%%%%%%%%%%%%%%%%%%%%%%
%                                                                              %
% SU2 configuration file                                                       %
% Case description: Transonic simulation RAE2822 (RANS)                        %
% Author: Francisco Palacios                                                   %
% Institution: Stanford University                                             %
% Date: 5/15/2013                                                              %
% File Version 8.0.0 "Harrier"                                                 %
%                                                                              %
%%%%%%%%%%%%%%%%%%%%%%%%%%%%%%%%%%%%%%%%%%%%%%%%%%%%%%%%%%%%%%%%%%%%%%%%%%%%%%%%

% ------------- DIRECT, ADJOINT, AND LINEARIZED PROBLEM DEFINITION ------------%
%
SOLVER= RANS
KIND_TURB_MODEL= SA
MATH_PROBLEM= DIRECT
RESTART_SOL= NO

% -------------------- COMPRESSIBLE FREE-STREAM DEFINITION --------------------%
%
MACH_NUMBER= 0.729
AOA= 2.31
FREESTREAM_TEMPERATURE= 288.15
REYNOLDS_NUMBER= 6.5E6
REYNOLDS_LENGTH= 1.0

% ---------------------- REFERENCE VALUE DEFINITION ---------------------------%
%
REF_ORIGIN_MOMENT_X = 0.25
REF_ORIGIN_MOMENT_Y = 0.00
REF_ORIGIN_MOMENT_Z = 0.00
REF_LENGTH= 1.0
REF_AREA= 1.0
REF_DIMENSIONALIZATION= FREESTREAM_VEL_EQ_ONE

% -------------------- BOUNDARY CONDITION DEFINITION --------------------------%
%
MARKER_HEATFLUX= ( AIRFOIL, 0.0 )
MARKER_FAR= ( FARFIELD )
MARKER_PLOTTING= ( AIRFOIL )
MARKER_MONITORING= ( AIRFOIL )

% ------------- COMMON PARAMETERS DEFINING THE NUMERICAL METHOD ---------------%
%
NUM_METHOD_GRAD= WEIGHTED_LEAST_SQUARES
CFL_NUMBER= 2.5
CFL_ADAPT= NO
CFL_ADAPT_PARAM= ( 1.5, 0.5, 1.0, 100.0 )
ITER= 99999
LINEAR_SOLVER= FGMRES
LINEAR_SOLVER_ERROR= 1E-5
LINEAR_SOLVER_ITER= 2

% -------------------------- MULTIGRID PARAMETERS -----------------------------%
%
MGLEVEL= 3
MGCYCLE= W_CYCLE
MG_PRE_SMOOTH= ( 1, 2, 3, 3 )
MG_POST_SMOOTH= ( 0, 0, 0, 0 )
MG_CORRECTION_SMOOTH= ( 0, 0, 0, 0 )
MG_DAMP_RESTRICTION= 0.95
MG_DAMP_PROLONGATION= 0.95

% -------------------- FLOW NUMERICAL METHOD DEFINITION -----------------------%
%
CONV_NUM_METHOD_FLOW= ROE
MUSCL_FLOW= YES
SLOPE_LIMITER_FLOW= VENKATAKRISHNAN
VENKAT_LIMITER_COEFF= 0.03
JST_SENSOR_COEFF= ( 0.5, 0.02 )
TIME_DISCRE_FLOW= EULER_IMPLICIT

% -------------------- TURBULENT NUMERICAL METHOD DEFINITION ------------------%
%
CONV_NUM_METHOD_TURB= SCALAR_UPWIND
MUSCL_TURB= NO
TIME_DISCRE_TURB= EULER_IMPLICIT

% ---------------- ADJOINT-FLOW NUMERICAL METHOD DEFINITION -------------------%
%
OBJECTIVE_FUNCTION= DRAG
CONV_NUM_METHOD_ADJFLOW= ROE
MUSCL_ADJFLOW= YES
SLOPE_LIMITER_ADJFLOW= NONE
ADJ_SHARP_LIMITER_COEFF= 3.0
ADJ_JST_SENSOR_COEFF= ( 0.0, 0.01 )
CFL_REDUCTION_ADJFLOW= 0.5
TIME_DISCRE_ADJFLOW= EULER_IMPLICIT
FROZEN_VISC_CONT= YES

% --------------------------- CONVERGENCE PARAMETERS --------------------------%
%
CONV_RESIDUAL_MINVAL= -13
CONV_STARTITER= 10
CONV_CAUCHY_ELEMS= 100
CONV_CAUCHY_EPS= 1E-6

% ------------------------- INPUT/OUTPUT INFORMATION --------------------------%
%
MESH_FILENAME= mesh_RAE2822_turb_ffd.su2
MESH_FORMAT= SU2
MESH_OUT_FILENAME= mesh_out.su2
SOLUTION_FILENAME= solution_flow.dat
SOLUTION_ADJ_FILENAME= solution_adj.dat
TABULAR_FORMAT= CSV
CONV_FILENAME= history
RESTART_FILENAME= restart_flow.dat
RESTART_ADJ_FILENAME= restart_adj.dat
VOLUME_FILENAME= flow
VOLUME_ADJ_FILENAME= adjoint
GRAD_OBJFUNC_FILENAME= of_grad.dat
SURFACE_FILENAME= surface_flow
SURFACE_ADJ_FILENAME= surface_adjoint
OUTPUT_WRT_FREQ= 250
OUTPUT_FILES=(PARAVIEW_ASCII)

% ----------------------- DESIGN VARIABLE PARAMETERS --------------------------%
%
DV_KIND= FFD_CONTROL_POINT_2D
DV_MARKER= ( AIRFOIL )
DV_PARAM= ( MAIN_BOX, 7, 1, 0.0, 1.0)
DV_VALUE= 0.1

% ------------------------ GRID DEFORMATION PARAMETERS ------------------------%
%
DEFORM_LINEAR_SOLVER= FGMRES
DEFORM_LINEAR_SOLVER_ITER= 1000
DEFORM_NONLINEAR_ITER= 1
DEFORM_CONSOLE_OUTPUT= YES
DEFORM_LINEAR_SOLVER_ERROR= 1E-14
DEFORM_COEFF = 1E6
DEFORM_STIFFNESS_TYPE= INVERSE_VOLUME

% -------------------- FREE-FORM DEFORMATION PARAMETERS -----------------------%
%
FFD_TOLERANCE= 1E-15
FFD_ITERATIONS= 500
FFD_DEFINITION= (MAIN_BOX, -0.00000001, -0.07, 0.0, 1.00000001, -0.07, 0.0, 1.00000001, 0.07, 0.0, -0.00000001, 0.07, 0.0, 0.0, 0.0, 0.0, 0.0, 0.0, 0.0, 0.0, 0.0, 0.0, 0.0, 0.0, 0.0)
FFD_DEGREE= ( 14, 1, 0)
FFD_CONTINUITY= 2ND_DERIVATIVE

% --------------------- OPTIMAL SHAPE DESIGN DEFINITION -----------------------%
%
OPT_OBJECTIVE= DRAG * 0.001
OPT_CONSTRAINT= NONE
DEFINITION_DV= ( 19, 1.0 | AIRFOIL | MAIN_BOX, 0, 0, 0.0, 1.0 ); ( 19, 1.0 | AIRFOIL | MAIN_BOX, 1, 0, 0.0, 1.0 ); ( 19, 1.0 | AIRFOIL | MAIN_BOX, 2, 0, 0.0, 1.0 ); ( 19, 1.0 | AIRFOIL | MAIN_BOX, 3, 0, 0.0, 1.0 ); ( 19, 1.0 | AIRFOIL | MAIN_BOX, 4, 0, 0.0, 1.0 ); ( 19, 1.0 | AIRFOIL | MAIN_BOX, 5, 0, 0.0, 1.0 ); ( 19, 1.0 | AIRFOIL | MAIN_BOX, 6, 0, 0.0, 1.0 ); ( 19, 1.0 | AIRFOIL | MAIN_BOX, 7, 0, 0.0, 1.0 ); ( 19, 1.0 | AIRFOIL | MAIN_BOX, 8, 0, 0.0, 1.0 ); ( 19, 1.0 | AIRFOIL | MAIN_BOX, 9, 0, 0.0, 1.0 ); ( 19, 1.0 | AIRFOIL | MAIN_BOX, 10, 0, 0.0, 1.0 ); ( 19, 1.0 | AIRFOIL | MAIN_BOX, 11, 0, 0.0, 1.0 ); ( 19, 1.0 | AIRFOIL | MAIN_BOX, 12, 0, 0.0, 1.0 ); ( 19, 1.0 | AIRFOIL | MAIN_BOX, 13, 0, 0.0, 1.0 ); ( 19, 1.0 | AIRFOIL | MAIN_BOX, 14, 0, 0.0, 1.0 ); ( 19, 1.0 | AIRFOIL | MAIN_BOX, 0, 1, 0.0, 1.0 ); ( 19, 1.0 | AIRFOIL | MAIN_BOX, 1, 1, 0.0, 1.0 ); ( 19, 1.0 | AIRFOIL | MAIN_BOX, 2, 1, 0.0, 1.0 ); ( 19, 1.0 | AIRFOIL | MAIN_BOX, 3, 1, 0.0, 1.0 ); ( 19, 1.0 | AIRFOIL | MAIN_BOX, 4, 1, 0.0, 1.0 ); ( 19, 1.0 | AIRFOIL | MAIN_BOX, 5, 1, 0.0, 1.0 ); ( 19, 1.0 | AIRFOIL | MAIN_BOX, 6, 1, 0.0, 1.0 ); ( 19, 1.0 | AIRFOIL | MAIN_BOX, 7, 1, 0.0, 1.0 ); ( 19, 1.0 | AIRFOIL | MAIN_BOX, 8, 1, 0.0, 1.0 ); ( 19, 1.0 | AIRFOIL | MAIN_BOX, 9, 1, 0.0, 1.0 ); ( 19, 1.0 | AIRFOIL | MAIN_BOX, 10, 1, 0.0, 1.0 ); ( 19, 1.0 | AIRFOIL | MAIN_BOX, 11, 1, 0.0, 1.0 ); ( 19, 1.0 | AIRFOIL | MAIN_BOX, 12, 1, 0.0, 1.0 ); ( 19, 1.0 | AIRFOIL | MAIN_BOX, 13, 1, 0.0, 1.0 ); ( 19, 1.0 | AIRFOIL | MAIN_BOX, 14, 1, 0.0, 1.0 )

