%%%%%%%%%%%%%%%%%%%%%%%%%%%%%%%%%%%%%%%%%%%%%%%%%%%%%%%%%%%%%%%%%%%%%%%%%%%%%%%%
%                                                                              %
% SU2 configuration file                                                       %
% Case description: Subsonic U-Turn                                            %
% Author: Andrea Rausa                                                         %
% Institution: Politecnico di Milano                                           %
% Date: 12/2/2023                                                              %
% File Version 8.2.0 "Harrier"                                                 %
%                                                                              %
%%%%%%%%%%%%%%%%%%%%%%%%%%%%%%%%%%%%%%%%%%%%%%%%%%%%%%%%%%%%%%%%%%%%%%%%%%%%%%%%

% ------------- DIRECT, ADJOINT, AND LINEARIZED PROBLEM DEFINITION ------------%
%
SOLVER= RANS
KIND_TURB_MODEL= SST
MATH_PROBLEM= DIRECT
RESTART_SOL= NO

% -------------------- COMPRESSIBLE FREE-STREAM DEFINITION --------------------%
%
MACH_NUMBER= 0.2
AOA= 0.0
FREESTREAM_TEMPERATURE= 270.0
REYNOLDS_NUMBER= 3.28E6
REYNOLDS_LENGTH= 1
REF_DIMENSIONALIZATION= FREESTREAM_VEL_EQ_MACH

% ---------------------- REFERENCE VALUE DEFINITION ---------------------------%
%
REF_ORIGIN_MOMENT_X = -0.2473
REF_ORIGIN_MOMENT_Y = 0.00
REF_ORIGIN_MOMENT_Z = 0.00
REF_LENGTH= 1
REF_AREA= 1

% -------------------- BOUNDARY CONDITION DEFINITION --------------------------%
%
MARKER_HEATFLUX= ( OuterWall, 0.0, InnerWall, 0.0 )
MARKER_FAR= ( Inlet, Outlet )
MARKER_PLOTTING= ( InnerWall )
MARKER_MONITORING= ( InnerWall )

% ------------------------ LINEAR SOLVER DEFINITION ---------------------------%
%
LINEAR_SOLVER= FGMRES
LINEAR_SOLVER_PREC= ILU
LINEAR_SOLVER_ERROR= 1.0e-6
LINEAR_SOLVER_ITER= 15

% -------------------------- MULTIGRID PARAMETERS -----------------------------%
%
CFL_ADAPT= YES
CFL_NUMBER= 1
CFL_REDUCTION_TURB= 1.0
CFL_ADAPT_PARAM= ( 0.5, 1.01, 1.0, 5, 0.0001)
ITER= 1

% -------------------- FLOW NUMERICAL METHOD DEFINITION -----------------------%
%
CONV_NUM_METHOD_FLOW= ROE
USE_VECTORIZATION= YES
MUSCL_FLOW= NO
SLOPE_LIMITER_FLOW= VENKATAKRISHNAN
VENKAT_LIMITER_COEFF= 0.03
TIME_DISCRE_FLOW= EULER_IMPLICIT

% -------------------- TURBULENT NUMERICAL METHOD DEFINITION ------------------%
%
CONV_NUM_METHOD_TURB= SCALAR_UPWIND
MUSCL_TURB= NO
TIME_DISCRE_TURB= EULER_IMPLICIT


% --------------------------- CONVERGENCE PARAMETERS --------------------------%
%
CONV_FIELD= MOMENT_X
CONV_STARTITER= 10
CONV_CAUCHY_ELEMS= 100
CONV_CAUCHY_EPS= 1E-6

% ------------------------- INPUT/OUTPUT INFORMATION --------------------------%
%
MESH_FILENAME= mesh.su2
MESH_FORMAT= SU2
SOLUTION_FILENAME= restart_flow
TABULAR_FORMAT= CSV
CONV_FILENAME= history_First
RESTART_FILENAME= restart_flow
VOLUME_FILENAME= flow
SURFACE_FILENAME= surface_flow
OUTPUT_WRT_FREQ= 100
SCREEN_OUTPUT= (INNER_ITER, WALL_TIME, RMS_DENSITY, LIFT, DRAG, MOMENT_Z)
OUTPUT_FILES= (SURFACE_CGNS)
WRT_FORCES_BREAKDOWN= NO
VOLUME_OUTPUT= (COORDINATES)
HISTORY_OUTPUT= (ITER)
