%%%%%%%%%%%%%%%%%%%%%%%%%%%%%%%%%%%%%%%%%%%%%%%%%%%%%%%%%%%%%%%%%%%%%%%%%%%%%%%%
%                                                                              %
% SU2 configuration file                                                       %
% Case description: Euler precursor for restart test (NACA0012)               %
% Author: SU2 Development Team                                                %
% File Version 8.4.0 "Harrier"                                                 %
%                                                                              %
%%%%%%%%%%%%%%%%%%%%%%%%%%%%%%%%%%%%%%%%%%%%%%%%%%%%%%%%%%%%%%%%%%%%%%%%%%%%%%%%

SOLVER= EULER
MATH_PROBLEM= DIRECT
RESTART_SOL= NO

MACH_NUMBER= 0.8
AOA= 1.25
FREESTREAM_PRESSURE= 101325.0
FREESTREAM_TEMPERATURE= 288.15

REF_ORIGIN_MOMENT_X = 0.25
REF_ORIGIN_MOMENT_Y = 0.00
REF_ORIGIN_MOMENT_Z = 0.00
REF_LENGTH= 1.0
REF_AREA= 1.0

MARKER_EULER= ( airfoil )
MARKER_FAR= ( farfield )

NUM_METHOD_GRAD= WEIGHTED_LEAST_SQUARES
CFL_NUMBER= 10.0
ITER= 10

LINEAR_SOLVER= FGMRES
LINEAR_SOLVER_PREC= ILU
LINEAR_SOLVER_ERROR= 1E-10
LINEAR_SOLVER_ITER= 10

CONV_NUM_METHOD_FLOW= ROE
TIME_DISCRE_FLOW= EULER_IMPLICIT

MESH_FILENAME= ../../../QuickStart/mesh_NACA0012_inv.su2
MESH_FORMAT= SU2

TABULAR_FORMAT= CSV
CONV_FILENAME= history
RESTART_FILENAME= restart_flow_euler
OUTPUT_WRT_FREQ= 10

SCREEN_OUTPUT=(INNER_ITER, WALL_TIME, RMS_DENSITY, RMS_ENERGY, LIFT, DRAG)
