# Makefile.in generated by automake 1.12.5 from Makefile.am.
# @configure_input@

# Copyright (C) 1994-2012 Free Software Foundation, Inc.

# This Makefile.in is free software; the Free Software Foundation
# gives unlimited permission to copy and/or distribute it,
# with or without modifications, as long as this notice is preserved.

# This program is distributed in the hope that it will be useful,
# but WITHOUT ANY WARRANTY, to the extent permitted by law; without
# even the implied warranty of MERCHANTABILITY or FITNESS FOR A
# PARTICULAR PURPOSE.

@SET_MAKE@

################################################################################
#
# \file Makefile.am
# \brief Makefile for the SU2 Python wrapper.
# \author D. Thomas
# \version 5.0.0 "Raven"
#
# SU2 Original Developers: Dr. Francisco D. Palacios.
#                          Dr. Thomas D. Economon.
#
# SU2 Developers: Prof. Juan J. Alonso's group at Stanford University.
#                 Prof. Piero Colonna's group at Delft University of Technology.
#                 Prof. Nicolas R. Gauger's group at Kaiserslautern University of Technology.
#                 Prof. Alberto Guardone's group at Polytechnic University of Milan.
#                 Prof. Rafael Palacios' group at Imperial College London.
#                 Prof. Edwin van der Weide's group at the University of Twente.
#                 Prof. Vincent Terrapon's group at the University of Liege.
#
# Copyright (C) 2012-2017 SU2, the open-source CFD code.
#
# SU2 is free software; you can redistribute it and/or
# modify it under the terms of the GNU Lesser General Public
# License as published by the Free Software Foundation; either
# version 2.1 of the License, or (at your option) any later version.
#
# SU2 is distributed in the hope that it will be useful,
# but WITHOUT ANY WARRANTY; without even the implied warranty of
# MERCHANTABILITY or FITNESS FOR A PARTICULAR PURPOSE. See the GNU
# Lesser General Public License for more details.
#
# You should have received a copy of the GNU Lesser General Public
# License along with SU2. If not, see <http://www.gnu.org/licenses/>.
#
################################################################################
VPATH = @srcdir@
am__make_dryrun = \
  { \
    am__dry=no; \
    case $$MAKEFLAGS in \
      *\\[\ \	]*) \
        echo 'am--echo: ; @echo "AM"  OK' | $(MAKE) -f - 2>/dev/null \
          | grep '^AM OK$$' >/dev/null || am__dry=yes;; \
      *) \
        for am__flg in $$MAKEFLAGS; do \
          case $$am__flg in \
            *=*|--*) ;; \
            *n*) am__dry=yes; break;; \
          esac; \
        done;; \
    esac; \
    test $$am__dry = yes; \
  }
pkgdatadir = $(datadir)/@PACKAGE@
pkgincludedir = $(includedir)/@PACKAGE@
pkglibdir = $(libdir)/@PACKAGE@
pkglibexecdir = $(libexecdir)/@PACKAGE@
am__cd = CDPATH="$${ZSH_VERSION+.}$(PATH_SEPARATOR)" && cd
install_sh_DATA = $(install_sh) -c -m 644
install_sh_PROGRAM = $(install_sh) -c
install_sh_SCRIPT = $(install_sh) -c
INSTALL_HEADER = $(INSTALL_DATA)
transform = $(program_transform_name)
NORMAL_INSTALL = :
PRE_INSTALL = :
POST_INSTALL = :
NORMAL_UNINSTALL = :
PRE_UNINSTALL = :
POST_UNINSTALL = :
build_triplet = @build@
host_triplet = @host@
target_triplet = @target@
@BUILD_TECIO_TRUE@am__append_1 = ${abs_top_builddir}/externals/tecio/libtecio.a
subdir = SU2_PY/pySU2
DIST_COMMON = $(srcdir)/Makefile.am $(srcdir)/Makefile.in
ACLOCAL_M4 = $(top_srcdir)/aclocal.m4
am__aclocal_m4_deps = $(top_srcdir)/m4/cgns.m4 \
	$(top_srcdir)/m4/codi.m4 $(top_srcdir)/m4/compiler.m4 \
	$(top_srcdir)/m4/metis.m4 $(top_srcdir)/m4/parmetis.m4 \
	$(top_srcdir)/m4/tecio.m4 $(top_srcdir)/configure.ac
am__configure_deps = $(am__aclocal_m4_deps) $(CONFIGURE_DEPENDENCIES) \
	$(ACLOCAL_M4)
mkinstalldirs = $(install_sh) -d
CONFIG_CLEAN_FILES =
CONFIG_CLEAN_VPATH_FILES =
AM_V_P = $(am__v_P_@AM_V@)
am__v_P_ = $(am__v_P_@AM_DEFAULT_V@)
am__v_P_0 = false
am__v_P_1 = :
AM_V_GEN = $(am__v_GEN_@AM_V@)
am__v_GEN_ = $(am__v_GEN_@AM_DEFAULT_V@)
am__v_GEN_0 = @echo "  GEN     " $@;
am__v_GEN_1 = 
AM_V_at = $(am__v_at_@AM_V@)
am__v_at_ = $(am__v_at_@AM_DEFAULT_V@)
am__v_at_0 = @
am__v_at_1 = 
SOURCES =
DIST_SOURCES =
am__can_run_installinfo = \
  case $$AM_UPDATE_INFO_DIR in \
    n|no|NO) false;; \
    *) (install-info --version) >/dev/null 2>&1;; \
  esac
DISTFILES = $(DIST_COMMON) $(DIST_SOURCES) $(TEXINFOS) $(EXTRA_DIST)
ACLOCAL = @ACLOCAL@
AMTAR = @AMTAR@
AM_DEFAULT_VERBOSITY = @AM_DEFAULT_VERBOSITY@
AUTOCONF = @AUTOCONF@
AUTOHEADER = @AUTOHEADER@
AUTOMAKE = @AUTOMAKE@
AWK = @AWK@
CC = @CC@
CCDEPMODE = @CCDEPMODE@
CFLAGS = @CFLAGS@
CGNS_INCLUDE = @CGNS_INCLUDE@
CGNS_LIB = @CGNS_LIB@
CPP = @CPP@
CPPFLAGS = @CPPFLAGS@
CXX = @CXX@
CXXDEPMODE = @CXXDEPMODE@
CXXFLAGS = @CXXFLAGS@
CYGPATH_W = @CYGPATH_W@
DEFS = @DEFS@
DEPDIR = @DEPDIR@
DIRECTDIFF_CXX = @DIRECTDIFF_CXX@
DIRECTDIFF_LIBS = @DIRECTDIFF_LIBS@
ECHO_C = @ECHO_C@
ECHO_N = @ECHO_N@
ECHO_T = @ECHO_T@
EGREP = @EGREP@
EXEEXT = @EXEEXT@
GREP = @GREP@
HDF5_CXX = @HDF5_CXX@
HDF5_LD = @HDF5_LD@
INSTALL = @INSTALL@
INSTALL_DATA = @INSTALL_DATA@
INSTALL_PROGRAM = @INSTALL_PROGRAM@
INSTALL_SCRIPT = @INSTALL_SCRIPT@
INSTALL_STRIP_PROGRAM = @INSTALL_STRIP_PROGRAM@
JSONCPP_CXX = @JSONCPP_CXX@
JSONCPP_LD = @JSONCPP_LD@
LAPACK_CXX = @LAPACK_CXX@
LAPACK_LD = @LAPACK_LD@
LDFLAGS = @LDFLAGS@
LIBOBJS = @LIBOBJS@
LIBS = @LIBS@
LTLIBOBJS = @LTLIBOBJS@
MAKEINFO = @MAKEINFO@

#External includes
METIS_INCLUDE = -I${abs_top_srcdir}/externals/metis/include
METIS_LIB = @METIS_LIB@
MKDIR_P = @MKDIR_P@
MUTATIONPP_CXX = @MUTATIONPP_CXX@
MUTATIONPP_LD = @MUTATIONPP_LD@
OBJEXT = @OBJEXT@
PACKAGE = @PACKAGE@
PACKAGE_BUGREPORT = @PACKAGE_BUGREPORT@
PACKAGE_NAME = @PACKAGE_NAME@
PACKAGE_STRING = @PACKAGE_STRING@
PACKAGE_TARNAME = @PACKAGE_TARNAME@
PACKAGE_URL = @PACKAGE_URL@
PACKAGE_VERSION = @PACKAGE_VERSION@
PARMETIS_INCLUDE = -I${abs_top_srcdir}/externals/parmetis/include
PARMETIS_LIB = @PARMETIS_LIB@
PATH_SEPARATOR = @PATH_SEPARATOR@
RANLIB = @RANLIB@
REVERSE_CXX = @REVERSE_CXX@
REVERSE_LIBS = @REVERSE_LIBS@
SET_MAKE = @SET_MAKE@
SHELL = @SHELL@
STRIP = @STRIP@
SU2_CGNS_CPPFLAGS = @SU2_CGNS_CPPFLAGS@
SU2_METIS_CPPFLAGS = @SU2_METIS_CPPFLAGS@
SU2_PARMETIS_CPPFLAGS = @SU2_PARMETIS_CPPFLAGS@
SZIP_CXX = @SZIP_CXX@
SZIP_LD = @SZIP_LD@
TECIO_CPPFLAGS = @TECIO_CPPFLAGS@
TECIO_INCLUDE = -I${abs_top_srcdir}/externals/tecio/include
VERSION = @VERSION@
ZLIB_CXX = @ZLIB_CXX@
ZLIB_LD = @ZLIB_LD@
abs_builddir = @abs_builddir@
abs_srcdir = @abs_srcdir@
abs_top_builddir = @abs_top_builddir@
abs_top_srcdir = @abs_top_srcdir@
ac_ct_CC = @ac_ct_CC@
ac_ct_CXX = @ac_ct_CXX@
am__include = @am__include@
am__leading_dot = @am__leading_dot@
am__quote = @am__quote@
am__tar = @am__tar@
am__untar = @am__untar@
bindir = @bindir@
build = @build@
build_alias = @build_alias@
build_cpu = @build_cpu@
build_os = @build_os@
build_vendor = @build_vendor@
builddir = @builddir@
datadir = @datadir@
datarootdir = @datarootdir@
docdir = @docdir@
dvidir = @dvidir@
exec_prefix = @exec_prefix@
host = @host@
host_alias = @host_alias@
host_cpu = @host_cpu@
host_os = @host_os@
host_vendor = @host_vendor@
htmldir = @htmldir@
includedir = @includedir@
infodir = @infodir@
install_sh = @install_sh@
libdir = @libdir@
libexecdir = @libexecdir@
localedir = @localedir@
localstatedir = @localstatedir@
mandir = @mandir@
mkdir_p = @mkdir_p@
oldincludedir = @oldincludedir@
pdfdir = @pdfdir@
prefix = @prefix@
program_transform_name = @program_transform_name@
psdir = @psdir@
sbindir = @sbindir@
sharedstatedir = @sharedstatedir@
srcdir = @srcdir@
su2_externals_INCLUDES = @su2_externals_INCLUDES@
su2_externals_LIBS = @su2_externals_LIBS@
sysconfdir = @sysconfdir@
target = @target@
target_alias = @target_alias@
target_cpu = @target_cpu@
target_os = @target_os@
target_vendor = @target_vendor@
top_build_prefix = @top_build_prefix@
top_builddir = @top_builddir@
top_srcdir = @top_srcdir@
CURRENT_DIR = ${abs_top_builddir}/SU2_PY/pySU2
SO_EXT = so
SWIG_SRC = ${abs_top_srcdir}/SU2_PY/pySU2/pySU2.i
SWIG_WRAP_REAL = SU2_APIPYTHON_wrap
SWIG_SO_REAL = _pysu2.${SO_EXT}
PYTHON_INCLUDE = -I/usr/include/python2.7
#NUMPY_INCLUDE = /usr/lib/python2.7/dist-packages/numpy/core/include
MPI4PY_INCLUDE = ${HOME}/.local/lib/python2.7/site-packages/mpi4py/include \
                 -I/usr/local/lib/python2.7/site-packages/mpi4py/include \
                 -I/usr/local/lib/python2.7/dist-packages/mpi4py/include \
                 -I/usr/local/lib/python2.7/dist-packages/mpi4py/include \
                 -I/Library/Python/2.7/site-packages/mpi4py/include

SWIG = swig
pySU2_INCLUDE = -I${abs_top_srcdir}/Common/include \
	-I${abs_top_srcdir}/SU2_CFD/include

PY_INCLUDE = ${PYTHON_INCLUDE} -I${MPI4PY_INCLUDE}
PY_LIB = -lpython2.7 \
         -L/usr/lib \
         -L/usr/lib/x86_64-linux-gnu

SWIG_INCLUDE = ${PY_INCLUDE}
SUBDIR_EXEC = ${bindir}
EXTRA_CC_FLAGS = -fPIC -O3

#External libraries (METIS_LIB and PARMETIS_LIB are already defined)
TECIO_LIB = $(am__append_1)

#SU2Core lib
SU2SOLVER_LIB = ${abs_top_builddir}/SU2_CFD/obj/libSU2Core.a \
		${abs_top_builddir}/Common/lib/libSU2.a


# Set the linking flags to use
pySU2_LD_FLAGS = ${SU2SOLVER_LIB} ${TECIO_LIB} ${PARMETIS_LIB} ${METIS_LIB} ${CGNS_LIB} ${PY_LIB}

# Set the command line flags to use for compilation
pySU2_CC_FLAGS = ${CPPFLAGS} ${EXTRA_CC_FLAGS} ${METIS_INCLUDE} ${PARMETIS_INCLUDE} ${TECIO_INCLUDE} ${CGNS_INCLUDE} ${pySU2_INCLUDE}
SO_LINK_FLAGS = -fPIC -shared 
all: all-am

.SUFFIXES:
$(srcdir)/Makefile.in:  $(srcdir)/Makefile.am  $(am__configure_deps)
	@for dep in $?; do \
	  case '$(am__configure_deps)' in \
	    *$$dep*) \
	      ( cd $(top_builddir) && $(MAKE) $(AM_MAKEFLAGS) am--refresh ) \
	        && { if test -f $@; then exit 0; else break; fi; }; \
	      exit 1;; \
	  esac; \
	done; \
	echo ' cd $(top_srcdir) && $(AUTOMAKE) --foreign SU2_PY/pySU2/Makefile'; \
	$(am__cd) $(top_srcdir) && \
	  $(AUTOMAKE) --foreign SU2_PY/pySU2/Makefile
.PRECIOUS: Makefile
Makefile: $(srcdir)/Makefile.in $(top_builddir)/config.status
	@case '$?' in \
	  *config.status*) \
	    cd $(top_builddir) && $(MAKE) $(AM_MAKEFLAGS) am--refresh;; \
	  *) \
	    echo ' cd $(top_builddir) && $(SHELL) ./config.status $(subdir)/$@ $(am__depfiles_maybe)'; \
	    cd $(top_builddir) && $(SHELL) ./config.status $(subdir)/$@ $(am__depfiles_maybe);; \
	esac;

$(top_builddir)/config.status: $(top_srcdir)/configure $(CONFIG_STATUS_DEPENDENCIES)
	cd $(top_builddir) && $(MAKE) $(AM_MAKEFLAGS) am--refresh

$(top_srcdir)/configure:  $(am__configure_deps)
	cd $(top_builddir) && $(MAKE) $(AM_MAKEFLAGS) am--refresh
$(ACLOCAL_M4):  $(am__aclocal_m4_deps)
	cd $(top_builddir) && $(MAKE) $(AM_MAKEFLAGS) am--refresh
$(am__aclocal_m4_deps):
tags: TAGS
TAGS:

ctags: CTAGS
CTAGS:

cscope cscopelist:


distdir: $(DISTFILES)
	@srcdirstrip=`echo "$(srcdir)" | sed 's/[].[^$$\\*]/\\\\&/g'`; \
	topsrcdirstrip=`echo "$(top_srcdir)" | sed 's/[].[^$$\\*]/\\\\&/g'`; \
	list='$(DISTFILES)'; \
	  dist_files=`for file in $$list; do echo $$file; done | \
	  sed -e "s|^$$srcdirstrip/||;t" \
	      -e "s|^$$topsrcdirstrip/|$(top_builddir)/|;t"`; \
	case $$dist_files in \
	  */*) $(MKDIR_P) `echo "$$dist_files" | \
			   sed '/\//!d;s|^|$(distdir)/|;s,/[^/]*$$,,' | \
			   sort -u` ;; \
	esac; \
	for file in $$dist_files; do \
	  if test -f $$file || test -d $$file; then d=.; else d=$(srcdir); fi; \
	  if test -d $$d/$$file; then \
	    dir=`echo "/$$file" | sed -e 's,/[^/]*$$,,'`; \
	    if test -d "$(distdir)/$$file"; then \
	      find "$(distdir)/$$file" -type d ! -perm -700 -exec chmod u+rwx {} \;; \
	    fi; \
	    if test -d $(srcdir)/$$file && test $$d != $(srcdir); then \
	      cp -fpR $(srcdir)/$$file "$(distdir)$$dir" || exit 1; \
	      find "$(distdir)/$$file" -type d ! -perm -700 -exec chmod u+rwx {} \;; \
	    fi; \
	    cp -fpR $$d/$$file "$(distdir)$$dir" || exit 1; \
	  else \
	    test -f "$(distdir)/$$file" \
	    || cp -p $$d/$$file "$(distdir)/$$file" \
	    || exit 1; \
	  fi; \
	done
check-am: all-am
check: check-am
all-am: Makefile
installdirs:
install-exec: install-exec-am
install-data: install-data-am
uninstall: uninstall-am

install-am: all-am
	@$(MAKE) $(AM_MAKEFLAGS) install-exec-am install-data-am

installcheck: installcheck-am
install-strip:
	if test -z '$(STRIP)'; then \
	  $(MAKE) $(AM_MAKEFLAGS) INSTALL_PROGRAM="$(INSTALL_STRIP_PROGRAM)" \
	    install_sh_PROGRAM="$(INSTALL_STRIP_PROGRAM)" INSTALL_STRIP_FLAG=-s \
	      install; \
	else \
	  $(MAKE) $(AM_MAKEFLAGS) INSTALL_PROGRAM="$(INSTALL_STRIP_PROGRAM)" \
	    install_sh_PROGRAM="$(INSTALL_STRIP_PROGRAM)" INSTALL_STRIP_FLAG=-s \
	    "INSTALL_PROGRAM_ENV=STRIPPROG='$(STRIP)'" install; \
	fi
mostlyclean-generic:

clean-generic:

distclean-generic:
	-test -z "$(CONFIG_CLEAN_FILES)" || rm -f $(CONFIG_CLEAN_FILES)
	-test . = "$(srcdir)" || test -z "$(CONFIG_CLEAN_VPATH_FILES)" || rm -f $(CONFIG_CLEAN_VPATH_FILES)

maintainer-clean-generic:
	@echo "This command is intended for maintainers to use"
	@echo "it deletes files that may require special tools to rebuild."
clean-am: clean-generic mostlyclean-am

distclean: distclean-am
	-rm -f Makefile
distclean-am: clean-am distclean-generic

dvi: dvi-am

dvi-am:

html: html-am

html-am:

info: info-am

info-am:

install-data-am:

install-dvi: install-dvi-am

install-dvi-am:

install-exec-am:

install-html: install-html-am

install-html-am:

install-info: install-info-am

install-info-am:

install-man:

install-pdf: install-pdf-am

install-pdf-am:

install-ps: install-ps-am

install-ps-am:

installcheck-am:

maintainer-clean: maintainer-clean-am
	-rm -f Makefile
maintainer-clean-am: distclean-am maintainer-clean-generic

mostlyclean: mostlyclean-am

mostlyclean-am: mostlyclean-generic

pdf: pdf-am

pdf-am:

ps: ps-am

ps-am:

uninstall-am:

.MAKE: install-am install-strip

.PHONY: all all-am check check-am clean clean-generic distclean \
	distclean-generic distdir dvi dvi-am html html-am info info-am \
	install install-am install-data install-data-am install-dvi \
	install-dvi-am install-exec install-exec-am install-html \
	install-html-am install-info install-info-am install-man \
	install-pdf install-pdf-am install-ps install-ps-am \
	install-strip installcheck installcheck-am installdirs \
	maintainer-clean maintainer-clean-generic mostlyclean \
	mostlyclean-generic pdf pdf-am ps ps-am uninstall uninstall-am


all:	
	${MAKE} real; 

# List the dependencies
real: ${SWIG_SO_REAL}

# Default rule for creating the _wrap.cxx file from the .i file
${SWIG_WRAP_REAL}.cxx: ${SU2SOLVER_LIB} ${SWIG_SRC}
	${SWIG} ${CPPFLAGS} -Wall ${SWIG_INCLUDE} -outdir ./ -o ${SWIG_WRAP_REAL}.cxx -c++ -python ${SWIG_SRC} 

#Default rule for compiling the .o files
${SWIG_WRAP_REAL}.o: ${SWIG_WRAP_REAL}.cxx
	${CXX} ${pySU2_CC_FLAGS} ${PY_INCLUDE} -c ${SWIG_WRAP_REAL}.cxx -o ${SWIG_WRAP_REAL}.o

#_%.${SO_EXT}: %.o
#	${CXX} ${SO_LINK_FLAGS} -o _$*.${SO_EXT} $*_wrap.o ${pySU2_LD_FLAGS}

${SWIG_SO_REAL}: ${SWIG_WRAP_REAL}.o
	${CXX} ${SO_LINK_FLAGS} -o ${SWIG_SO_REAL} ${SWIG_WRAP_REAL}.o ${pySU2_LD_FLAGS}

.SECONDARY:

clean: 
	rm -f ${CURRENT_DIR}/*.cxx
	rm -f ${CURRENT_DIR}/*.${SO_EXT}
	rm -f ${CURRENT_DIR}/*.o
	rm -f ${CURRENT_DIR}/*.h
	rm -f ${CURRENT_DIR}/*.py

install: all
	${INSTALL} pysu2.py ${bindir}
	${INSTALL} _pysu2.so ${bindir}

# Tell versions [3.59,3.63) of GNU make to not export all variables.
# Otherwise a system limit (for SysV at least) may be exceeded.
.NOEXPORT:
