/*
################################################################################
#
# \file pySU2.i
# \brief Configuration file for the Swig compilation of the Python wrapper.
# \author D. Thomas
# \version 5.0.0 "Raven"
#
# SU2 Original Developers: Dr. Francisco D. Palacios.
#                          Dr. Thomas D. Economon.
#
# SU2 Developers: Prof. Juan J. Alonso's group at Stanford University.
#                 Prof. Piero Colonna's group at Delft University of Technology.
#                 Prof. Nicolas R. Gauger's group at Kaiserslautern University of Technology.
#                 Prof. Alberto Guardone's group at Polytechnic University of Milan.
#                 Prof. Rafael Palacios' group at Imperial College London.
#                 Prof. Edwin van der Weide's group at the University of Twente.
#                 Prof. Vincent Terrapon's group at the University of Liege.
#
# Copyright (C) 2012-2017 SU2, the open-source CFD code.
#
# SU2 is free software; you can redistribute it and/or
# modify it under the terms of the GNU Lesser General Public
# License as published by the Free Software Foundation; either
# version 2.1 of the License, or (at your option) any later version.
#
# SU2 is distributed in the hope that it will be useful,
# but WITHOUT ANY WARRANTY; without even the implied warranty of
# MERCHANTABILITY or FITNESS FOR A PARTICULAR PURPOSE. See the GNU
# Lesser General Public License for more details.
#
# You should have received a copy of the GNU Lesser General Public
# License along with SU2. If not, see <http://www.gnu.org/licenses/>.
#
################################################################################
*/

%feature("autodoc","1");

%module(docstring=
"'pysu2' module",
directors="1",
threads="1"
) pysu2
%{

#include "../../SU2_CFD/include/driver_structure.hpp"

%}

// ----------- USED MODULES ------------
%import "../../Common/include/datatypes/primitive_structure.hpp"
%import "../../Common/include/mpi_structure.hpp"
%include "std_string.i"
%include "std_vector.i"
%include "std_map.i"
%include "typemaps.i"
//%include "numpy.i"
#ifdef HAVE_MPI                    //Need mpi4py only for a parallel build of the wrapper.
  %include "mpi4py/mpi4py.i"
  %mpi4py_typemap(Comm, MPI_Comm)
#endif

namespace std {
   %template() vector<int>;
   %template() vector<double>;
   %template() vector<string>;
   %template() map<string, int>;
   %template() map<string, string>;
}

// ----------- API CLASSES ----------------

//Constants definitions
/*!
 * \brief different software components of SU2
 */
enum SU2_COMPONENT {
  SU2_CFD = 1,	/*!< \brief Running the SU2_CFD software. */
  SU2_DEF = 2,	/*!< \brief Running the SU2_DEF software. */
  SU2_DOT = 3,	/*!< \brief Running the SU2_DOT software. */
  SU2_MSH = 4,	/*!< \brief Running the SU2_MSH software. */
  SU2_GEO = 5,	/*!< \brief Running the SU2_GEO software. */
  SU2_SOL = 6 	/*!< \brief Running the SU2_SOL software. */
};

const unsigned int MESH_0 = 0; /*!< \brief Definition of the finest grid level. */
const unsigned int MESH_1 = 1; /*!< \brief Definition of the finest grid level. */
const unsigned int ZONE_0 = 0; /*!< \brief Definition of the first grid domain. */
const unsigned int ZONE_1 = 1; /*!< \brief Definition of the first grid domain. */

// CDriver class
%include "../../SU2_CFD/include/driver_structure.hpp"

// CConfig class
class CConfig {
private:
  SU2_Comm SU2_Communicator; /*!< \brief MPI communicator of SU2.*/
  int rank;
  unsigned short Kind_SU2; /*!< \brief Kind of SU2 software component.*/
  unsigned short Ref_NonDim; /*!< \brief Kind of non dimensionalization.*/
  unsigned short Kind_MixingProcess; /*!< \brief Kind of mixing process.*/
  unsigned short *Kind_TurboPerformance; /*!< \brief Kind of Turbomachinery performance calculation.*/
  unsigned short iZone, nZone; /*!< \brief Number of zones in the mesh. */
  su2double Highlite_Area; /*!< \brief Highlite area. */
  su2double Fan_Poly_Eff; /*!< \brief Highlite area. */
  su2double OrderMagResidual; /*!< \brief Order of magnitude reduction. */
  su2double MinLogResidual; /*!< \brief Minimum value of the log residual. */
  su2double OrderMagResidualFSI; /*!< \brief Order of magnitude reduction. */
  su2double MinLogResidualFSI; /*!< \brief Minimum value of the log residual. */
  su2double Res_FEM_UTOL; 		/*!< \brief UTOL criteria for structural FEM. */
  su2double Res_FEM_RTOL; 		/*!< \brief RTOL criteria for structural FEM. */
  su2double Res_FEM_ETOL; 		/*!< \brief ETOL criteria for structural FEM. */
  su2double EA_ScaleFactor; /*!< \brief Equivalent Area scaling factor */
  su2double* EA_IntLimit; /*!< \brief Integration limits of the Equivalent Area computation */
  su2double AdjointLimit; /*!< \brief Adjoint variable limit */
  su2double* Obj_ChainRuleCoeff; /*!< \brief Array defining objective function for adjoint problem based on chain rule in terms of gradient w.r.t. density, velocity, pressure */
  bool MG_AdjointFlow; /*!< \brief MG with the adjoint flow problem */
  su2double* SubsonicEngine_Cyl; /*!< \brief Coordinates of the box subsonic region */
  su2double* SubsonicEngine_Values; /*!< \brief Values of the box subsonic region */
  su2double* Hold_GridFixed_Coord; /*!< \brief Coordinates of the box to hold fixed the nbumerical grid */
  su2double *DistortionRack;
  su2double *PressureLimits,
  *DensityLimits,
  *TemperatureLimits; /*!< \brief Limits for the primitive variables */
  bool ActDisk_DoubleSurface;  /*!< \brief actuator disk double surface  */
  bool Engine_HalfModel;  /*!< \brief only half model is in the computational grid  */
  bool ActDisk_SU2_DEF;  /*!< \brief actuator disk double surface  */
  unsigned short ConvCriteria;	/*!< \brief Kind of convergence criteria. */
  unsigned short nFFD_Iter; 	/*!< \brief Iteration for the point inversion problem. */
  unsigned short FFD_Blending; /*!< \brief Kind of FFD Blending function. */
  su2double* FFD_BSpline_Order; /*!< \brief BSpline order in i,j,k direction. */
  su2double FFD_Tol;  	/*!< \brief Tolerance in the point inversion problem. */
  su2double FFD_Scale;  	/*!< \brief Scale factor between the design variable value and the control point movement. */
  bool Viscous_Limiter_Flow, Viscous_Limiter_Turb;			/*!< \brief Viscous limiters. */
  bool Write_Conv_FSI;			/*!< \brief Write convergence file for FSI problems. */
  bool ContinuousAdjoint,			/*!< \brief Flag to know if the code is solving an adjoint problem. */
  Viscous,                /*!< \brief Flag to know if the code is solving a viscous problem. */
  EquivArea,				/*!< \brief Flag to know if the code is going to compute and plot the equivalent area. */
  Engine,				/*!< \brief Flag to know if the code is going to compute a problem with engine. */
  InvDesign_Cp,				/*!< \brief Flag to know if the code is going to compute and plot the inverse design. */
  InvDesign_HeatFlux,				/*!< \brief Flag to know if the code is going to compute and plot the inverse design. */
  Grid_Movement,			/*!< \brief Flag to know if there is grid movement. */
  Wind_Gust,              /*!< \brief Flag to know if there is a wind gust. */
  Aeroelastic_Simulation, /*!< \brief Flag to know if there is an aeroelastic simulation. */
  Rotating_Frame,			/*!< \brief Flag to know if there is a rotating frame. */
  PoissonSolver,			/*!< \brief Flag to know if we are solving  poisson forces  in plasma solver. */
  Low_Mach_Precon,		/*!< \brief Flag to know if we are using a low Mach number preconditioner. */
  Low_Mach_Corr,			/*!< \brief Flag to know if we are using a low Mach number correction. */
  GravityForce,			/*!< \brief Flag to know if the gravity force is incuded in the formulation. */
  SmoothNumGrid,			/*!< \brief Smooth the numerical grid. */
  AdaptBoundary,			/*!< \brief Adapt the elements on the boundary. */
  SubsonicEngine,			/*!< \brief Engine intake subsonic region. */
  Frozen_Visc,			/*!< \brief Flag for adjoint problem with/without frozen viscosity. */
  Sens_Remove_Sharp,			/*!< \brief Flag for removing or not the sharp edges from the sensitivity computation. */
  Hold_GridFixed,	/*!< \brief Flag hold fixed some part of the mesh during the deformation. */
  Axisymmetric; /*!< \brief Flag for axisymmetric calculations */
  su2double Damp_Engine_Inflow;	/*!< \brief Damping factor for the engine inlet. */
  su2double Damp_Engine_Exhaust;	/*!< \brief Damping factor for the engine exhaust. */
  su2double Damp_Res_Restric,	/*!< \brief Damping factor for the residual restriction. */
  Damp_Correc_Prolong; /*!< \brief Damping factor for the correction prolongation. */
  su2double Position_Plane; /*!< \brief Position of the Near-Field (y coordinate 2D, and z coordinate 3D). */
  su2double WeightCd; /*!< \brief Weight of the drag coefficient. */
  su2double dCD_dCL; /*!< \brief Weight of the drag coefficient. */
  su2double dCD_dCM; /*!< \brief Weight of the drag coefficient. */
  su2double CL_Target; /*!< \brief Weight of the drag coefficient. */
  su2double CM_Target; /*!< \brief Weight of the drag coefficient. */
  su2double *HTP_Min_XCoord, *HTP_Min_YCoord; /*!< \brief Identification of the HTP. */
  unsigned short Unsteady_Simulation;	/*!< \brief Steady or unsteady (time stepping or dual time stepping) computation. */
  unsigned short Dynamic_Analysis;	/*!< \brief Static or dynamic structural analysis. */
  unsigned short nStartUpIter;	/*!< \brief Start up iterations using the fine grid. */
  su2double FixAzimuthalLine; /*!< \brief Fix an azimuthal line due to misalignments of the nearfield. */
  su2double **DV_Value;		/*!< \brief Previous value of the design variable. */
  su2double DVBound_Upper;		/*!< \brief Previous value of the design variable. */
  su2double DVBound_Lower;		/*!< \brief Previous value of the design variable. */
  su2double LimiterCoeff;				/*!< \brief Limiter coefficient */
  unsigned long LimiterIter;	/*!< \brief Freeze the value of the limiter after a number of iterations */
  su2double SharpEdgesCoeff;				/*!< \brief Coefficient to identify the limit of a sharp edge. */
  unsigned short SystemMeasurements; /*!< \brief System of measurements. */
  unsigned short Kind_Regime;  /*!< \brief Kind of adjoint function. */
  unsigned short *Kind_ObjFunc;  /*!< \brief Kind of objective function. */
  su2double *Weight_ObjFunc;    /*!< \brief Weight applied to objective function. */
  unsigned short Kind_SensSmooth; /*!< \brief Kind of sensitivity smoothing technique. */
  unsigned short Continuous_Eqns; /*!< \brief Which equations to treat continuously (Hybrid adjoint)*/
  unsigned short Discrete_Eqns; /*!< \brief Which equations to treat discretely (Hybrid adjoint). */
  unsigned short *Design_Variable; /*!< \brief Kind of design variable. */
  unsigned short Kind_Adaptation;	/*!< \brief Kind of numerical grid adaptation. */
  unsigned short nTimeInstances;  /*!< \brief Number of periodic time instances for  harmonic balance. */
  su2double HarmonicBalance_Period;		/*!< \brief Period of oscillation to be used with harmonic balance computations. */
  su2double New_Elem_Adapt;			/*!< \brief Elements to adapt in the numerical grid adaptation process. */
  su2double Delta_UnstTime,			/*!< \brief Time step for unsteady computations. */
  Delta_UnstTimeND;						/*!< \brief Time step for unsteady computations (non dimensional). */
  su2double Delta_DynTime,		/*!< \brief Time step for dynamic structural computations. */
  Total_DynTime,				/*!< \brief Total time for dynamic structural computations. */
  Current_DynTime;			/*!< \brief Global time of the dynamic structural computations. */
  su2double Total_UnstTime,						/*!< \brief Total time for unsteady computations. */
  Total_UnstTimeND;								/*!< \brief Total time for unsteady computations (non dimensional). */
  su2double Current_UnstTime,									/*!< \brief Global time of the unsteady simulation. */
  Current_UnstTimeND;									/*!< \brief Global time of the unsteady simulation. */
  unsigned short nMarker_Euler,	/*!< \brief Number of Euler wall markers. */
  nMarker_FarField,				/*!< \brief Number of far-field markers. */
  nMarker_Custom,
  nMarker_SymWall,				/*!< \brief Number of symmetry wall markers. */
  nMarker_Pressure,				/*!< \brief Number of pressure wall markers. */
  nMarker_PerBound,				/*!< \brief Number of periodic boundary markers. */
  nMarker_MixBound,				/*!< \brief Number of mixing boundary markers. */
  nMarker_TurboPerf,				/*!< \brief Number of mixing boundary markers. */
  nMarker_NearFieldBound,				/*!< \brief Number of near field boundary markers. */
  nMarker_ActDiskInlet, nMarker_ActDiskOutlet,
  nMarker_InterfaceBound,				/*!< \brief Number of interface boundary markers. */
  nMarker_Fluid_InterfaceBound,				/*!< \brief Number of fluid interface markers. */
  nMarker_Dirichlet,				/*!< \brief Number of interface boundary markers. */
  nMarker_Inlet,					/*!< \brief Number of inlet flow markers. */
  nMarker_Riemann,					/*!< \brief Number of Riemann flow markers. */
  nMarker_NRBC,					/*!< \brief Number of NRBC flow markers. */
  nMarker_Supersonic_Inlet,					/*!< \brief Number of supersonic inlet flow markers. */
  nMarker_Supersonic_Outlet,					/*!< \brief Number of supersonic outlet flow markers. */
  nMarker_Outlet,					/*!< \brief Number of outlet flow markers. */
  nMarker_Out_1D,         /*!< \brief Number of outlet flow markers over which to calculate 1D outputs */
  nMarker_Isothermal,     /*!< \brief Number of isothermal wall boundaries. */
  nMarker_HeatFlux,       /*!< \brief Number of constant heat flux wall boundaries. */
  nMarker_EngineExhaust,					/*!< \brief Number of nacelle exhaust flow markers. */
  nMarker_EngineInflow,					/*!< \brief Number of nacelle inflow flow markers. */
  nMarker_Clamped,						/*!< \brief Number of clamped markers in the FEM. */
  nMarker_Displacement,					/*!< \brief Number of displacement surface markers. */
  nMarker_Load,					/*!< \brief Number of load surface markers. */
  nMarker_Load_Dir,					/*!< \brief Number of load surface markers defined by magnitude and direction. */
  nMarker_Load_Sine,					/*!< \brief Number of load surface markers defined by magnitude and direction. */
  nMarker_FlowLoad,					/*!< \brief Number of load surface markers. */
  nMarker_Neumann,				/*!< \brief Number of Neumann flow markers. */
  nMarker_Internal,				/*!< \brief Number of Neumann flow markers. */
  nMarker_All,					/*!< \brief Total number of markers using the grid information. */
  nMarker_Max,					/*!< \brief Max number of number of markers using the grid information. */
  nMarker_CfgFile;					/*!< \brief Total number of markers using the config file
                             (note that using parallel computation this number can be different
                             from nMarker_All). */
  string *Marker_Euler,			/*!< \brief Euler wall markers. */
  *Marker_FarField,				/*!< \brief Far field markers. */
  *Marker_Custom,
  *Marker_SymWall,				/*!< \brief Symmetry wall markers. */
  *Marker_Pressure,				/*!< \brief Pressure boundary markers. */
  *Marker_PerBound,				/*!< \brief Periodic boundary markers. */
  *Marker_PerDonor,				/*!< \brief Rotationally periodic boundary donor markers. */
  *Marker_MixBound,				/*!< \brief MixingPlane boundary markers. */
  *Marker_MixDonor,				/*!< \brief MixingPlane boundary donor markers. */
  *Marker_TurboBoundIn,				/*!< \brief Turbomachinery performance boundary markers. */
  *Marker_TurboBoundOut,				/*!< \brief Turbomachinery performance boundary donor markers. */
  *Marker_NearFieldBound,				/*!< \brief Near Field boundaries markers. */
  *Marker_InterfaceBound,				/*!< \brief Interface boundaries markers. */
  *Marker_Fluid_InterfaceBound,				/*!< \brief Fluid interface markers. */
  *Marker_ActDiskInlet,
  *Marker_ActDiskOutlet,
  *Marker_Dirichlet,				/*!< \brief Interface boundaries markers. */
  *Marker_Inlet,					/*!< \brief Inlet flow markers. */
  *Marker_Riemann,					/*!< \brief Riemann markers. */
  *Marker_NRBC,					/*!< \brief NRBC markers. */
  *Marker_Supersonic_Inlet,					/*!< \brief Supersonic inlet flow markers. */
  *Marker_Supersonic_Outlet,					/*!< \brief Supersonic outlet flow markers. */
  *Marker_Outlet,					/*!< \brief Outlet flow markers. */
  *Marker_Out_1D,         /*!< \brief Outlet flow markers over which to calculate 1D output. */
  *Marker_Isothermal,     /*!< \brief Isothermal wall markers. */
  *Marker_HeatFlux,       /*!< \brief Constant heat flux wall markers. */
  *Marker_EngineInflow,					/*!< \brief Engine Inflow flow markers. */
  *Marker_EngineExhaust,					/*!< \brief Engine Exhaust flow markers. */
  *Marker_Clamped,						/*!< \brief Clamped markers. */
  *Marker_Displacement,					/*!< \brief Displacement markers. */
  *Marker_Load,					/*!< \brief Load markers. */
  *Marker_Load_Dir,					/*!< \brief Load markers defined in cartesian coordinates. */
  *Marker_Load_Sine,					/*!< \brief Sine-wave loaded markers defined in cartesian coordinates. */
  *Marker_FlowLoad,					/*!< \brief Flow Load markers. */
  *Marker_Neumann,					/*!< \brief Neumann flow markers. */
  *Marker_Internal,					/*!< \brief Neumann flow markers. */
  *Marker_All_TagBound;				/*!< \brief Global index for markers using grid information. */
  su2double *Dirichlet_Value;    /*!< \brief Specified Dirichlet value at the boundaries. */
  su2double *Exhaust_Temperature_Target;    /*!< \brief Specified total temperatures for nacelle boundaries. */
  su2double *Exhaust_Pressure_Target;    /*!< \brief Specified total pressures for nacelle boundaries. */
  su2double *Inlet_Ttotal;    /*!< \brief Specified total temperatures for inlet boundaries. */
  su2double *Riemann_Var1, *Riemann_Var2;    /*!< \brief Specified values for Riemann boundary. */
  su2double **Riemann_FlowDir;  /*!< \brief Specified flow direction vector (unit vector) for Riemann boundaries. */
  su2double *NRBC_Var1, *NRBC_Var2;    /*!< \brief Specified values for NRBC boundary. */
  su2double **NRBC_FlowDir;  /*!< \brief Specified flow direction vector (unit vector) for NRBC boundaries. */
  su2double *Inlet_Ptotal;    /*!< \brief Specified total pressures for inlet boundaries. */
  su2double **Inlet_FlowDir;  /*!< \brief Specified flow direction vector (unit vector) for inlet boundaries. */
  su2double *Inlet_Temperature;    /*!< \brief Specified temperatures for a supersonic inlet boundaries. */
  su2double *Inlet_Pressure;    /*!< \brief Specified static pressures for supersonic inlet boundaries. */
  su2double **Inlet_Velocity;  /*!< \brief Specified flow velocity vectors for supersonic inlet boundaries. */
  su2double *EngineInflow_Target;    /*!< \brief Specified fan face mach for nacelle boundaries. */
  su2double *Inflow_Mach;    /*!< \brief Specified fan face mach for nacelle boundaries. */
  su2double *Inflow_Pressure;    /*!< \brief Specified fan face mach for nacelle boundaries. */
  su2double *Inflow_MassFlow;    /*!< \brief Specified fan face mach for nacelle boundaries. */
  su2double *Inflow_ReverseMassFlow;    /*!< \brief Specified fan face mach for nacelle boundaries. */
  su2double *Inflow_TotalPressure;    /*!< \brief Specified fan face mach for nacelle boundaries. */
  su2double *Inflow_Temperature;    /*!< \brief Specified fan face mach for nacelle boundaries. */
  su2double *Inflow_TotalTemperature;    /*!< \brief Specified fan face mach for nacelle boundaries. */
  su2double *Inflow_RamDrag;    /*!< \brief Specified fan face mach for nacelle boundaries. */
  su2double *Inflow_Force;    /*!< \brief Specified fan face mach for nacelle boundaries. */
  su2double *Inflow_Power;    /*!< \brief Specified fan face mach for nacelle boundaries. */
  su2double *Exhaust_Pressure;    /*!< \brief Specified fan face mach for nacelle boundaries. */
  su2double *Exhaust_Temperature;    /*!< \brief Specified fan face mach for nacelle boundaries. */
  su2double *Exhaust_MassFlow;    /*!< \brief Specified fan face mach for nacelle boundaries. */
  su2double *Exhaust_TotalPressure;    /*!< \brief Specified fan face mach for nacelle boundaries. */
  su2double *Exhaust_TotalTemperature;    /*!< \brief Specified fan face mach for nacelle boundaries. */
  su2double *Exhaust_GrossThrust;    /*!< \brief Specified fan face mach for nacelle boundaries. */
  su2double *Exhaust_Force;    /*!< \brief Specified fan face mach for nacelle boundaries. */
  su2double *Exhaust_Power;    /*!< \brief Specified fan face mach for nacelle boundaries. */
  su2double *Engine_Power;    /*!< \brief Specified fan face mach for nacelle boundaries. */
  su2double *Engine_Mach;    /*!< \brief Specified fan face mach for nacelle boundaries. */
  su2double *Engine_Force;    /*!< \brief Specified fan face mach for nacelle boundaries. */
  su2double *Engine_NetThrust;    /*!< \brief Specified fan face mach for nacelle boundaries. */
  su2double *Engine_GrossThrust;    /*!< \brief Specified fan face mach for nacelle boundaries. */
  su2double *Engine_Area;    /*!< \brief Specified fan face mach for nacelle boundaries. */
  su2double *Outlet_Pressure;    /*!< \brief Specified back pressures (static) for outlet boundaries. */
  su2double *Isothermal_Temperature; /*!< \brief Specified isothermal wall temperatures (static). */
  su2double *Heat_Flux;  /*!< \brief Specified wall heat fluxes. */
  su2double *Displ_Value;    /*!< \brief Specified displacement for displacement boundaries. */
  su2double *Load_Value;    /*!< \brief Specified force for load boundaries. */
  su2double *Load_Dir_Value;    /*!< \brief Specified force for load boundaries defined in cartesian coordinates. */
  su2double *Load_Dir_Multiplier;    /*!< \brief Specified multiplier for load boundaries defined in cartesian coordinates. */
  su2double **Load_Dir;  /*!< \brief Specified flow direction vector (unit vector) for inlet boundaries. */
  su2double *Load_Sine_Amplitude;    /*!< \brief Specified amplitude for a sine-wave load. */
  su2double *Load_Sine_Frequency;    /*!< \brief Specified multiplier for load boundaries defined in cartesian coordinates. */
  su2double **Load_Sine_Dir;  /*!< \brief Specified flow direction vector (unit vector) for inlet boundaries. */
  su2double *FlowLoad_Value;    /*!< \brief Specified force for flow load boundaries. */
  su2double *ActDiskInlet_MassFlow;    /*!< \brief Specified fan face mach for nacelle boundaries. */
  su2double *ActDiskInlet_Temperature;    /*!< \brief Specified fan face mach for nacelle boundaries. */
  su2double *ActDiskInlet_TotalTemperature;    /*!< \brief Specified fan face mach for nacelle boundaries. */
  su2double *ActDiskInlet_Pressure;    /*!< \brief Specified fan face mach for nacelle boundaries. */
  su2double *ActDiskInlet_TotalPressure;    /*!< \brief Specified fan face mach for nacelle boundaries. */
  su2double *ActDiskInlet_RamDrag;    /*!< \brief Specified fan face mach for nacelle boundaries. */
  su2double *ActDiskInlet_Force;    /*!< \brief Specified fan face mach for nacelle boundaries. */
  su2double *ActDiskInlet_Power;    /*!< \brief Specified fan face mach for nacelle boundaries. */
  su2double *ActDiskOutlet_MassFlow;    /*!< \brief Specified fan face mach for nacelle boundaries. */
  su2double *ActDiskOutlet_Temperature;    /*!< \brief Specified fan face mach for nacelle boundaries. */
  su2double *ActDiskOutlet_TotalTemperature;    /*!< \brief Specified fan face mach for nacelle boundaries. */
  su2double *ActDiskOutlet_Pressure;    /*!< \brief Specified fan face mach for nacelle boundaries. */
  su2double *ActDiskOutlet_TotalPressure;    /*!< \brief Specified fan face mach for nacelle boundaries. */
  su2double *ActDiskOutlet_GrossThrust;    /*!< \brief Specified fan face mach for nacelle boundaries. */
  su2double *ActDiskOutlet_Force;    /*!< \brief Specified fan face mach for nacelle boundaries. */
  su2double *ActDiskOutlet_Power;    /*!< \brief Specified fan face mach for nacelle boundaries. */
  su2double **ActDisk_PressJump, **ActDisk_TempJump,  **ActDisk_Omega;
  su2double *ActDisk_DeltaPress;    /*!< \brief Specified fan face mach for nacelle boundaries. */
  su2double *ActDisk_DeltaTemp;    /*!< \brief Specified fan face mach for nacelle boundaries. */
  su2double *ActDisk_TotalPressRatio;    /*!< \brief Specified fan face mach for nacelle boundaries. */
  su2double *ActDisk_TotalTempRatio;    /*!< \brief Specified fan face mach for nacelle boundaries. */
  su2double *ActDisk_StaticPressRatio;    /*!< \brief Specified fan face mach for nacelle boundaries. */
  su2double *ActDisk_StaticTempRatio;    /*!< \brief Specified fan face mach for nacelle boundaries. */
  su2double *ActDisk_Power;    /*!< \brief Specified fan face mach for nacelle boundaries. */
  su2double *ActDisk_MassFlow;    /*!< \brief Specified fan face mach for nacelle boundaries. */
  su2double *ActDisk_Mach;    /*!< \brief Specified fan face mach for nacelle boundaries. */
  su2double *ActDisk_Force;    /*!< \brief Specified fan face mach for nacelle boundaries. */
  su2double *Surface_MassFlow;    /*!< \brief Specified fan face mach for nacelle boundaries. */
  su2double *Surface_DC60;    /*!< \brief Specified fan face mach for nacelle boundaries. */
  su2double *Surface_IDC;    /*!< \brief Specified fan face mach for nacelle boundaries. */
  su2double *Surface_IDC_Mach;    /*!< \brief Specified fan face mach for nacelle boundaries. */
  su2double *Surface_IDR;    /*!< \brief Specified fan face mach for nacelle boundaries. */
  su2double *ActDisk_NetThrust;    /*!< \brief Specified fan face mach for nacelle boundaries. */
  su2double *ActDisk_BCThrust;    /*!< \brief Specified fan face mach for nacelle boundaries. */
  su2double *ActDisk_BCThrust_Old;    /*!< \brief Specified fan face mach for nacelle boundaries. */
  su2double *ActDisk_GrossThrust;    /*!< \brief Specified fan face mach for nacelle boundaries. */
  su2double *ActDisk_Area;    /*!< \brief Specified fan face mach for nacelle boundaries. */
  su2double *ActDisk_ReverseMassFlow;    /*!< \brief Specified fan face mach for nacelle boundaries. */
  su2double **Periodic_RotCenter;  /*!< \brief Rotational center for each periodic boundary. */
  su2double **Periodic_RotAngles;      /*!< \brief Rotation angles for each periodic boundary. */
  su2double **Periodic_Translation;      /*!< \brief Translation vector for each periodic boundary. */
  unsigned short nPeriodic_Index;     /*!< \brief Number of SEND_RECEIVE periodic transformations. */
  su2double **Periodic_Center;         /*!< \brief Rotational center for each SEND_RECEIVE boundary. */
  su2double **Periodic_Rotation;      /*!< \brief Rotation angles for each SEND_RECEIVE boundary. */
  su2double **Periodic_Translate;      /*!< \brief Translation vector for each SEND_RECEIVE boundary. */
  string *Marker_CfgFile_TagBound;			/*!< \brief Global index for markers using config file. */
  unsigned short *Marker_All_KindBC,			/*!< \brief Global index for boundaries using grid information. */
  *Marker_CfgFile_KindBC;		/*!< \brief Global index for boundaries using config file. */
  short *Marker_All_SendRecv;		/*!< \brief Information about if the boundary is sended (+), received (-). */
  short *Marker_All_PerBound;	/*!< \brief Global index for periodic bc using the grid information. */
  unsigned long nExtIter;			/*!< \brief Number of external iterations. */
  unsigned long ExtIter;			/*!< \brief Current external iteration number. */
  unsigned long ExtIter_OffSet;			/*!< \brief External iteration number offset. */
  unsigned long IntIter;			/*!< \brief Current internal iteration number. */
  unsigned long FSIIter;			/*!< \brief Current Fluid Structure Interaction sub-iteration number. */
  unsigned long Unst_nIntIter;			/*!< \brief Number of internal iterations (Dual time Method). */
  unsigned long Dyn_nIntIter;			/*!< \brief Number of internal iterations (Newton-Raphson Method for nonlinear structural analysis). */
  long Unst_RestartIter;			/*!< \brief Iteration number to restart an unsteady simulation (Dual time Method). */
  long Unst_AdjointIter;			/*!< \brief Iteration number to begin the reverse time integration in the direct solver for the unsteady adjoint. */
  long Iter_Avg_Objective;			/*!< \brief Iteration the number of time steps to be averaged, counting from the back */
  long Dyn_RestartIter;			/*!< \brief Iteration number to restart a dynamic structural analysis. */
  unsigned short nRKStep;			/*!< \brief Number of steps of the explicit Runge-Kutta method. */
  su2double *RK_Alpha_Step;			/*!< \brief Runge-Kutta beta coefficients. */
  unsigned short nMGLevels;		/*!< \brief Number of multigrid levels (coarse levels). */
  unsigned short nCFL;			/*!< \brief Number of CFL, one for each multigrid level. */
  su2double
  CFLRedCoeff_Turb,		/*!< \brief CFL reduction coefficient on the LevelSet problem. */
  CFLRedCoeff_AdjFlow,	/*!< \brief CFL reduction coefficient for the adjoint problem. */
  CFLRedCoeff_AdjTurb,	/*!< \brief CFL reduction coefficient for the adjoint problem. */
  CFLFineGrid,		/*!< \brief CFL of the finest grid. */
  Max_DeltaTime,  		/*!< \brief Max delta time. */
  Unst_CFL;		/*!< \brief Unsteady CFL number. */
  bool AddIndNeighbor;			/*!< \brief Include indirect neighbor in the agglomeration process. */
  unsigned short nDV,		/*!< \brief Number of design variables. */
  nObj, nObjW;              /*! \brief Number of objective functions. */
  unsigned short* nDV_Value;		/*!< \brief Number of values for each design variable (might be different than 1 if we allow arbitrary movement). */
  unsigned short nFFDBox;		/*!< \brief Number of ffd boxes. */