%%%%%%%%%%%%%%%%%%%%%%%%%%%%%%%%%%%%%%%%%%%%%%%%%%%%%%%%%%%%%%%%%%%%%%%%%%%%%%%%
%                                                                              %
% SU2 configuration file                                                       %
% Case description: Discrete Adjoint FEA test case for python wrapper          %
% Author: R.Sanchez                                                            %
% Institution: TU Kaiserslautern                                               %
% Date: 2019.07.08                                                             %
%                                                                              %
%%%%%%%%%%%%%%%%%%%%%%%%%%%%%%%%%%%%%%%%%%%%%%%%%%%%%%%%%%%%%%%%%%%%%%%%%%%%%%%%

SOLVER= ELASTICITY
KIND_TURB_MODEL= NONE

MATH_PROBLEM= DISCRETE_ADJOINT

RESTART_SOL= NO

OBJECTIVE_FUNCTION= REFERENCE_NODE
REFERENCE_NODE= 127
REFERENCE_NODE_DISPLACEMENT= (0.0, 0.0)
REFERENCE_NODE_PENALTY= 1.0

READ_BINARY_RESTART=NO

MESH_FILENAME= mesh.su2

MARKER_CLAMPED = ( Clamped )
MARKER_PRESSURE= ( LowerBeamS, 0.0, UpperBeamS, 0.00, RightBeamS, 0.0)
MARKER_FLUID_LOAD= ( LowerBeamS, UpperBeamS, RightBeamS)

GEOMETRIC_CONDITIONS= LARGE_DEFORMATIONS
MATERIAL_MODEL= NEO_HOOKEAN
MATERIAL_COMPRESSIBILITY= COMPRESSIBLE

ELASTICITY_MODULUS=21000
POISSON_RATIO=0.4
MATERIAL_DENSITY=100
DEAD_LOAD=NO
FORMULATION_ELASTICITY_2D = PLANE_STRAIN

NONLINEAR_FEM_SOLUTION_METHOD = NEWTON_RAPHSON
INNER_ITER = 1

CONV_FILENAME= history
VOLUME_FILENAME= beam
BREAKDOWN_FILENAME= forces_breakdown.dat

SOLUTION_FILENAME= solution_beam.dat
RESTART_FILENAME= restart_beam.dat

SOLUTION_ADJ_FILENAME= solution_adj.dat
RESTART_ADJ_FILENAME= restart_adj.dat

MESH_FORMAT= SU2
TABULAR_FORMAT= CSV

OUTPUT_WRT_FREQ= 1

LINEAR_SOLVER= CONJUGATE_GRADIENT
LINEAR_SOLVER_PREC= JACOBI
LINEAR_SOLVER_ERROR= 1E-8
LINEAR_SOLVER_ITER= 1000

DISCADJ_LIN_SOLVER= CONJUGATE_GRADIENT
DISCADJ_LIN_PREC= JACOBI
