%%%%%%%%%%%%%%%%%%%%%%%%%%%%%%%%%%%%%%%%%%%%%%%%%%%%%%%%%%%%%%%%%%%%%%%%%%%%%%%%
%                                                                              %
% SU2 configuration file                                                       %
% Case description: 2D 5x5 Square Test Case representing a thermal bath        %
%                    with thermal nonequilibrium and finite-rate chemistry     %
%                                                                              %
%                   This only serves as a regression case.                     %
%                                                                              %
%%%%%%%%%%%%%%%%%%%%%%%%%%%%%%%%%%%%%%%%%%%%%%%%%%%%%%%%%%%%%%%%%%%%%%%%%%%%%%%%

% ------------- DIRECT, ADJOINT, AND LINEARIZED PROBLEM DEFINITION ------------%
%
SOLVER= NEMO_EULER         
GAS_MODEL= AIR-7
GAS_COMPOSITION=(0.0, 0.767, 0.233, 0.0, 0.0, 0.0, 0.0)
MATH_PROBLEM= DIRECT
READ_BINARY_RESTART= NO

TIME_MARCHING=DUAL_TIME_STEPPING-2ND_ORDER
TIME_DOMAIN= YES
TIME_STEP= 0.000000001 % 1.e-09
MAX_TIME= 0.001

% ----------- COMPRESSIBLE AND INCOMPRESSIBLE FREE_STREAM DEFINITION ----------%
%
MACH_NUMBER= 0.0
AOA = 0.0
FREESTREAM_PRESSURE = 101325.0
FREESTREAM_TEMPERATURE = 30000
FREESTREAM_TEMPERATURE_VE= 1000 

% ---- NONEQUILIBRIUM GAS, IDEAL GAS, POLYTROPIC, VAN DER WAALS AND PENG ROBINSON CONSTANTS -------%
%
FLUID_MODEL= SU2_NONEQ

% -------------------- BOUNDARY CONDITION DEFINITION --------------------------%
%
MARKER_SYM= (left,bottom,top,right )

% ------------- COMMON PARAMETERS DEFINING THE NUMERICAL METHOD ---------------%
%
NUM_METHOD_GRAD= WEIGHTED_LEAST_SQUARES
CFL_NUMBER= 1.0
TIME_ITER= 3
INNER_ITER= 11

% ------------------------ LINEAR SOLVER DEFINITION ---------------------------%
%
LINEAR_SOLVER= FGMRES
LINEAR_SOLVER_PREC= ILU
LINEAR_SOLVER_ERROR= 1E-10
LINEAR_SOLVER_ITER= 10

% -------------------- FLOW NUMERICAL METHOD DEFINITION -----------------------%
%
CONV_NUM_METHOD_FLOW= MSW
MUSCL_FLOW= NO
SLOPE_LIMITER_FLOW= VENKATAKRISHNAN
TIME_DISCRE_FLOW= EULER_EXPLICIT

% --------------------------- CONVERGENCE PARAMETERS --------------------------%
%
CONV_RESIDUAL_MINVAL= -50
CONV_STARTITER= 10
CONV_CAUCHY_ELEMS= 100
CONV_CAUCHY_EPS= 1E-6
OBJECTIVE_FUNCTION= DRAG

% ------------------------- INPUT/OUTPUT INFORMATION --------------------------%
%
MESH_FILENAME= 5x5Mesh.su2
MESH_FORMAT= SU2
MESH_OUT_FILENAME= mesh_out.su2
SOLUTION_FILENAME= restart_flow.dat
SOLUTION_ADJ_FILENAME= solution_adj.dat
TABULAR_FORMAT= TECPLOT
OUTPUT_FILES= (RESTART_ASCII)
CONV_FILENAME= history
RESTART_FILENAME= restart_flow.dat
RESTART_ADJ_FILENAME= restart_adj.dat
VOLUME_FILENAME= test_flow
VOLUME_ADJ_FILENAME= adjoint
GRAD_OBJFUNC_FILENAME= of_grad.dat
SURFACE_FILENAME= surface_flow
SURFACE_ADJ_FILENAME= surface_adjoint
SCREEN_WRT_FREQ_INNER= 10
OUTPUT_WRT_FREQ= 10
SCREEN_OUTPUT= (INNER_ITER, RMS_DENSITY_0, RMS_DENSITY_1, RMS_DENSITY_2, RMS_DENSITY_3, RMS_DENSITY_4, RMS_DENSITY_5, RMS_DENSITY_6, RMS_ENERGY, RMS_ENERGY_VE, LIFT, DRAG)
