%%%%%%%%%%%%%%%%%%%%%%%%%%%%%%%%%%%%%%%%%%%%%%%%%%%%%%%%%%%%%%%%%%%%%%%%%%%%%%%%
%                                                                              %
% SU2 configuration file                                                       %
% Case description: Incompressible flow hydrofoil 5 degrees                    %
% Author: Nitish Anand                                                         %
% Institution: VITO NV Belgium                                                 %
% Date: 2024/02/14                                                             %
% File Version 8.0.0 "Harrier"                                                 %
%                                                                              %
%%%%%%%%%%%%%%%%%%%%%%%%%%%%%%%%%%%%%%%%%%%%%%%%%%%%%%%%%%%%%%%%%%%%%%%%%%%%%%%%

% ------------- DIRECT, ADJOINT, AND LINEARIZED PROBLEM DEFINITION ------------%
%
SOLVER= INC_EULER
MATH_PROBLEM= DIRECT
KIND_INCOMP_SYSTEM= PRESSURE_BASED
KIND_PB_ITER= SIMPLE
RESTART_SOL= NO

VISCOSITY_MODEL=CONSTANT_VISCOSITY
MU_CONSTANT= 0.01
FLUID_MODEL= INC_IDEAL_GAS

% ---------------- INCOMPRESSIBLE FLOW CONDITION DEFINITION -------------------%
%
INC_DENSITY_INIT= 998.2
INC_VELOCITY_INIT= ( 1.0, 0.0, 0.0 )
INC_INLET_TYPE= VELOCITY_INLET
INC_INLET_DAMPING= 0.1
INC_OUTLET_TYPE= PRESSURE_OUTLET
INC_OUTLET_DAMPING= 0.1

% ---------------------- REFERENCE VALUE DEFINITION ---------------------------%
%
REF_ORIGIN_MOMENT_X = 0.25
REF_ORIGIN_MOMENT_Y = 0.00
REF_ORIGIN_MOMENT_Z = 0.00
REF_LENGTH= 1.0
REF_AREA= 1.0

% ----------------------- BOUNDARY CONDITION DEFINITION -----------------------%
%
%MARKER_HEATFLUX= (airfoil, 0.0)
MARKER_EULER= ( airfoil, lower_wall, upper_wall )
MARKER_INLET= ( inlet, 0.0, 1.0, 1.0, 0.0, 0.0 )
MARKER_OUTLET= ( outlet, 0.0 )
MARKER_PLOTTING= ( airfoil )
MARKER_MONITORING= ( airfoil )

% ------------- COMMON PARAMETERS TO DEFINE THE NUMERICAL METHOD --------------%
%
NUM_METHOD_GRAD= GREEN_GAUSS
CFL_NUMBER= 1.0
CFL_ADAPT= NO
CFL_ADAPT_PARAM= ( 1.5, 0.5, 1.0, 100.0 )
RK_ALPHA_COEFF= ( 0.66667, 0.66667, 1.000000 )
ITER= 9999


% -------------------------- MULTIGRID PARAMETERS -----------------------------%
%
MGLEVEL= 0
MGCYCLE= W_CYCLE
MG_PRE_SMOOTH= ( 1, 2, 3, 3 )
MG_POST_SMOOTH= ( 1, 1, 1, 1 )
MG_CORRECTION_SMOOTH= ( 1, 1, 1, 1 )
MG_DAMP_RESTRICTION= 0.85
MG_DAMP_PROLONGATION= 0.85

% -------------------- FLOW NUMERICAL METHOD DEFINITION -----------------------%
%
CONV_NUM_METHOD_FLOW= UDS
MUSCL_FLOW= YES
SLOPE_LIMITER_FLOW= NONE
VENKAT_LIMITER_COEFF= 0.0002
JST_SENSOR_COEFF= ( 0.5, 0.04 )
TIME_DISCRE_FLOW= EULER_IMPLICIT
POISSON_LINEAR_SOLVER_ITER = 20
LINEAR_SOLVER_ITER = 20
RELAXATION_FACTOR_PBFLOW= 1.0
RELAXATION_FACTOR_RHIECHOW= 0.5

% --------------------------- CONVERGENCE PARAMETERS --------------------------%
%
CONV_RESIDUAL_MINVAL= -99
CONV_STARTITER= 10
CONV_CAUCHY_ELEMS= 50
CONV_CAUCHY_EPS= 1E-6

% ------------------------- INPUT/OUTPUT INFORMATION --------------------------%
%
MESH_FILENAME= mesh_NACA0012_5deg_6814.su2
MESH_FORMAT= SU2
SOLUTION_FILENAME= solution_flow.dat
TABULAR_FORMAT= CSV
CONV_FILENAME= history
RESTART_FILENAME= restart_flow.dat
VOLUME_FILENAME= flow
SURFACE_FILENAME= surface_flow
OUTPUT_WRT_FREQ= 200
SCREEN_OUTPUT= (INNER_ITER, RMS_VELOCITY-X, RMS_VELOCITY-Y, RMS_MASSFLUX, FORCE-X_ON_SURFACE, FORCE-Y_ON_SURFACE, REFERENCE_FORCE)
OUTPUT_FILES= (SURFACE_CSV, RESTART, PARAVIEW)
