% See https://su2code.github.io/vandv/swbli/
%
% ------------------------------- SOLVER -------------------------------- %
%
SOLVER= RANS
KIND_TURB_MODEL= SST
SST_OPTIONS= V2003m, COMPRESSIBILITY-WILCOX
REF_DIMENSIONALIZATION= FREESTREAM_VEL_EQ_MACH
%
% ----------------------------- FREESTREAM ------------------------------ %
%
MACH_NUMBER= 5
AOA= 0
INIT_OPTION= TD_CONDITIONS
FREESTREAM_OPTION= TEMPERATURE_FS
FREESTREAM_TEMPERATURE= 68.3333
FREESTREAM_PRESSURE= 4006.88
REYNOLDS_LENGTH= 0.523
FREESTREAM_TURBULENCEINTENSITY= 5e-4
FREESTREAM_TURB2LAMVISCRATIO= 0.01
%
% -------------------------- REFERENCE VALUES --------------------------- %
%
REF_AREA= 0.523
REF_LENGTH= 0.523
REF_ORIGIN_MOMENT_X= 0.0
REF_ORIGIN_MOMENT_Y= 0.0
REF_ORIGIN_MOMENT_Z= 0.0
%
% ------------------------- BOUNDARY CONDITIONS ------------------------- %
%
MARKER_HEATFLUX= ( bottom, 0.0, top, 0.0 )
MARKER_SUPERSONIC_INLET= ( inlet, 68.3333, 4006.88, 828.58, 0, 0 )
MARKER_OUTLET= ( outlet, 4006.88 )
MARKER_SYM= ( sym )
MARKER_PLOTTING= ( bottom )
MARKER_MONITORING= ( bottom )
%
% ---------------------------- FLUID MODELS ----------------------------- %
%
FLUID_MODEL= STANDARD_AIR
GAMMA_VALUE= 1.4
GAS_CONSTANT= 287.058
%
VISCOSITY_MODEL= SUTHERLAND
MU_REF= 1.716E-5
MU_T_REF= 273.15
SUTHERLAND_CONSTANT= 110.4
%
CONDUCTIVITY_MODEL= CONSTANT_PRANDTL
PRANDTL_LAM= 0.72
PRANDTL_TURB= 0.90
%
% ----------------------- SPATIAL DISCRETIZATION ------------------------ %
%
NUM_METHOD_GRAD= GREEN_GAUSS
CONV_NUM_METHOD_FLOW= ROE
ENTROPY_FIX_COEFF= 1e-5
MUSCL_FLOW= YES
SLOPE_LIMITER_FLOW= VENKATAKRISHNAN
VENKAT_LIMITER_COEFF= 0.1
%
CONV_NUM_METHOD_TURB= SCALAR_UPWIND
MUSCL_TURB= NO
%
% ---------- PSEUDOTIME INTEGRATION / CONVERGENCE ACCELERATION ---------- %
%
TIME_DISCRE_FLOW= EULER_IMPLICIT
TIME_DISCRE_TURB= EULER_IMPLICIT
%
CFL_NUMBER= 10
CFL_REDUCTION_TURB= 1
CFL_ADAPT= NO
CFL_ADAPT_PARAM= ( 1.0, 1.05, 1, 50, 0.8 )
%
LINEAR_SOLVER= FGMRES
LINEAR_SOLVER_PREC= ILU
LINEAR_SOLVER_ERROR= 0.01
LINEAR_SOLVER_ITER= 3
%
NEWTON_KRYLOV= NO
NEWTON_KRYLOV_IPARAM= ( 0, 0, 1 ) % n0, np, ft
NEWTON_KRYLOV_DPARAM= ( 0.0, 1e-20, -3, 1e-5 ) % r0, tp, rf, e
%
% ------------------------ CONVERGENCE CRITERIA ------------------------- %
%
ITER= 20000
CONV_RESIDUAL_MINVAL= -11.5
%
% --------------------------- INPUT / OUTPUT ---------------------------- %
%
MESH_FILENAME= mesh.su2
MESH_FORMAT= SU2
RESTART_SOL= YES
SOLUTION_FILENAME= solution_sst.dat
OUTPUT_WRT_FREQ= 500
SCREEN_WRT_FREQ_INNER= 1
HISTORY_OUTPUT= ( ITER, RMS_RES, AERO_COEFF )
SCREEN_OUTPUT= ( INNER_ITER, RMS_RES, FORCE_X, LINSOL_RESIDUAL, LINSOL_RESIDUAL_TURB, AVG_CFL )
