% 2021-03-11 TobiKattmann
%
SOLVER= MULTIPHYSICS
%
% Set RESTART_SOL=YES for primal runs including the FD sweep
RESTART_SOL= NO
RESTART_ITER= 2
READ_BINARY_RESTART= YES
SOLUTION_FILENAME= solution
RESTART_FILENAME= solution
%
CONFIG_LIST = ( fluid.cfg, solid.cfg )
MARKER_ZONE_INTERFACE= ( cylinder_fluid, cylinder_solid )
MARKER_CHT_INTERFACE=  ( cylinder_fluid, cylinder_solid )

% ------------------------- UNSTEADY SIMULATION -------------------------------%
%
TIME_DOMAIN= YES
TIME_MARCHING= DUAL_TIME_STEPPING-2ND_ORDER
TIME_STEP= 500
MAX_TIME= 1e9
% For a primal restart change TIME_ITER=56 for the correct number of steps. 54 is for the adjoint run.
TIME_ITER= 54
% For the primal (and therefore FD sweep) OUTER_ITER=200 is suitable.
% For an accurate adjont run set OUTER_ITER=500. 100 is for the regression test.
OUTER_ITER= 100
UNST_ADJOINT_ITER= 56
ITER_AVERAGE_OBJ= 54

% ------------------------- INPUT/OUTPUT FILE INFORMATION --------------------------%
%
MESH_FILENAME= MeshCHT.su2
SCREEN_OUTPUT= (TIME_ITER, OUTER_ITER, BGS_ADJ_PRESSURE[0], BGS_ADJ_VELOCITY-X[0], BGS_ADJ_VELOCITY-Y[0], BGS_ADJ_TEMPERATURE[0], BGS_ADJ_TEMPERATURE[1], SENS_TEMP[0], SENS_GEO[0], SENS_GEO[1] )
% Suitable output for primal simulations
%SCREEN_OUTPUT= (TIME_ITER, OUTER_ITER, WALL_TIME, BGS_PRESSURE[0], BGS_TEMPERATURE[0], BGS_TEMPERATURE[1], DRAG[0], AVG_TEMPERATURE[1] )
SCREEN_WRT_FREQ_OUTER= 50
HISTORY_OUTPUT= ( ITER, BGS_RES[0], RMS_RES[0], BGS_RES[1], RMS_RES[1],\
 FLOW_COEFF[0], HEAT[0], AERO_COEFF[0], HEAT[1],\
 LINSOL[0], LINSOL[1], TAVG_HEAT[1])
OUTPUT_FILES= (RESTART, PARAVIEW)
OUTPUT_WRT_FREQ= 1
VOLUME_FILENAME= flow
WRT_PERFORMANCE= YES
SOLUTION_ADJ_FILENAME= solution_adj
RESTART_ADJ_FILENAME= solution_adj
VOLUME_ADJ_FILENAME= flow_adj
TABULAR_FORMAT= CSV
GRAD_OBJFUNC_FILENAME= of_grad.csv
OUTPUT_PRECISION=16

% -------------------- FREE-FORM DEFORMATION PARAMETERS -----------------------%
%
FFD_TOLERANCE= 1E-10
FFD_ITERATIONS= 500
FFD_DEFINITION= (BOX,\
 -0.6,-0.6,0.0,\
  0.6,-0.6,0.0,\
  0.6, 0.6,0.0,\
 -0.6, 0.6,0.0,\
 0.0,0.0,0.0,  0.0,0.0,0.0  0.0,0.0,0.0,  0.0,0.0,0.0 )
FFD_DEGREE= (8, 1, 0)
FFD_CONTINUITY= NO_DERIVATIVE

% ----------------------- DESIGN VARIABLE PARAMETERS --------------------------%
%
% First 9 are upper, second 9 are lower DV's
DV_KIND= FFD_CONTROL_POINT_2D,FFD_CONTROL_POINT_2D,FFD_CONTROL_POINT_2D,FFD_CONTROL_POINT_2D,FFD_CONTROL_POINT_2D,FFD_CONTROL_POINT_2D,FFD_CONTROL_POINT_2D,FFD_CONTROL_POINT_2D,FFD_CONTROL_POINT_2D, FFD_CONTROL_POINT_2D,FFD_CONTROL_POINT_2D,FFD_CONTROL_POINT_2D,FFD_CONTROL_POINT_2D,FFD_CONTROL_POINT_2D,FFD_CONTROL_POINT_2D,FFD_CONTROL_POINT_2D,FFD_CONTROL_POINT_2D,FFD_CONTROL_POINT_2D
DV_MARKER= ( cylinder_fluid, cylinder_solid )
DV_PARAM= \
( BOX, 0, 1, 0.0, 1.0);\
( BOX, 1, 1, 0.0, 1.0);\
( BOX, 2, 1, 0.0, 1.0);\
( BOX, 3, 1, 0.0, 1.0);\
( BOX, 4, 1, 0.0, 1.0);\
( BOX, 5, 1, 0.0, 1.0);\
( BOX, 6, 1, 0.0, 1.0);\
( BOX, 7, 1, 0.0, 1.0);\
( BOX, 8, 1, 0.0, 1.0);\
( BOX, 0, 0, 0.0, 1.0);\
( BOX, 1, 0, 0.0, 1.0);\
( BOX, 2, 0, 0.0, 1.0);\
( BOX, 3, 0, 0.0, 1.0);\
( BOX, 4, 0, 0.0, 1.0);\
( BOX, 5, 0, 0.0, 1.0);\
( BOX, 6, 0, 0.0, 1.0);\
( BOX, 7, 0, 0.0, 1.0);\
( BOX, 8, 0, 0.0, 1.0)
DV_VALUE= 1.0,1.0,1.0,1.0,1.0,1.0,1.0,1.0,1.0, 1.0,1.0,1.0,1.0,1.0,1.0,1.0,1.0,1.0

% ------------------------ GRID DEFORMATION PARAMETERS ------------------------%
%
DEFORM_LINEAR_SOLVER= FGMRES
DEFORM_LINEAR_SOLVER_PREC= ILU
DEFORM_LINEAR_SOLVER_ERROR= 1E-14
DEFORM_NONLINEAR_ITER= 1
DEFORM_LINEAR_SOLVER_ITER= 1000
DEFORM_CONSOLE_OUTPUT= YES
DEFORM_STIFFNESS_TYPE= WALL_DISTANCE
DEFINITION_DV= \
( 19, 1.0 | cylinder_fluid, cylinder_solid | BOX, 0, 1, 0.0, 1.0 ); \
( 19, 1.0 | cylinder_fluid, cylinder_solid | BOX, 1, 1, 0.0, 1.0 ); \
( 19, 1.0 | cylinder_fluid, cylinder_solid | BOX, 2, 1, 0.0, 1.0 ); \
( 19, 1.0 | cylinder_fluid, cylinder_solid | BOX, 3, 1, 0.0, 1.0 ); \
( 19, 1.0 | cylinder_fluid, cylinder_solid | BOX, 4, 1, 0.0, 1.0 ); \
( 19, 1.0 | cylinder_fluid, cylinder_solid | BOX, 5, 1, 0.0, 1.0 ); \
( 19, 1.0 | cylinder_fluid, cylinder_solid | BOX, 6, 1, 0.0, 1.0 ); \
( 19, 1.0 | cylinder_fluid, cylinder_solid | BOX, 7, 1, 0.0, 1.0 ); \
( 19, 1.0 | cylinder_fluid, cylinder_solid | BOX, 8, 1, 0.0, 1.0 ); \
( 19, 1.0 | cylinder_fluid, cylinder_solid | BOX, 0, 0, 0.0, 1.0 ); \
( 19, 1.0 | cylinder_fluid, cylinder_solid | BOX, 1, 0, 0.0, 1.0 ); \
( 19, 1.0 | cylinder_fluid, cylinder_solid | BOX, 2, 0, 0.0, 1.0 ); \
( 19, 1.0 | cylinder_fluid, cylinder_solid | BOX, 3, 0, 0.0, 1.0 ); \
( 19, 1.0 | cylinder_fluid, cylinder_solid | BOX, 4, 0, 0.0, 1.0 ); \
( 19, 1.0 | cylinder_fluid, cylinder_solid | BOX, 5, 0, 0.0, 1.0 ); \
( 19, 1.0 | cylinder_fluid, cylinder_solid | BOX, 6, 0, 0.0, 1.0 ); \
( 19, 1.0 | cylinder_fluid, cylinder_solid | BOX, 7, 0, 0.0, 1.0 ); \
( 19, 1.0 | cylinder_fluid, cylinder_solid | BOX, 8, 0, 0.0, 1.0 )