%%%%%%%%%%%%%%%%%%%%%%%%%%%%%%%%%%%%%%%%%%%%%%%%%%%%%%%%%%%%%%%%%%%%%%%%%%%%%%%%
%                                                                              %
% Stanford University unstructured (SU2) configuration file                    %
% Case description: Transonic turbulent simulation around an ONERA M6 wing     %
% Author: Francisco Palacios                                                   %
% Institution: Stanford University                                             %
% Date: 05/04/2011                                                             %
% File Version 1.0.12 January 5th, 2012                                        %
%                                                                              %
%%%%%%%%%%%%%%%%%%%%%%%%%%%%%%%%%%%%%%%%%%%%%%%%%%%%%%%%%%%%%%%%%%%%%%%%%%%%%%%%

% ------------- DIRECT, ADJOINT, AND LINEARIZED PROBLEM DEFINITION ------------%
%
% Physical governing equations (POTENTIAL_FLOW, EULER, NAVIER_STOKES, 
%                               MULTI_SPECIES_NAVIER_STOKES, TWO_PHASE_FLOW, 
%                               COMBUSTION)
PHYSICAL_PROBLEM= NAVIER_STOKES
%
% If Navier-Stokes, kind of turbulent model (NONE, SA)
KIND_TURB_MODEL= SA
%
% Mathematical problem (DIRECT, ADJOINT, LINEARIZED, ONE_SHOT_ADJOINT)
MATH_PROBLEM= DIRECT
%
% Restart solution (NO, YES)
RESTART_SOL= NO

% ---------------------------- GAS DEFINITION ---------------------------------%
% Mach number in the farfield
MACH_NUMBER= 0.8500
%
% Angle of attack (degrees)
AoA= 1.50
%
% Side-slip angle (degrees)
SIDESLIP_ANGLE= 0.0
%
% Ratio of specific heats
GAMMA_VALUE= 1.4
%
% Specific gas constant ( J/(kg*K) )
GAS_CONSTANT= 287.87
%
% Total pressure (N/m^2)
FREESTREAM_PRESSURE= 101325.0
%
% Total temperature (Kelvin)
FREESTREAM_TEMPERATURE= 273.15
%
% Reynolds number (0.0 implies no definition)
REYNOLDS_NUMBER= 5000000.0
%
% Reynolds length (dimensional)
REYNOLDS_LENGTH= 1.0
%
% Laminar Prandtl number
PRANDTL_LAM= 0.72
%
% Turbulent Prandtl number
PRANDTL_TURB= 0.9

% ---------------------- REFERENCE VALUE DEFINITION ---------------------------%
% Conversion factor for converting the grid to meters
CONVERT_TO_METER= 1.0
%
% Reference origin for moment computation
REF_ORIGIN_MOMENT= ( 0.25, 0.00, 0.00 )
%
% Reference area for non-dimensionalization (0 implies automatic calculation)
REF_AREA= 0
%
% Reference length for pitching, rolling, and yawing momentum.
REF_LENGTH_MOMENT= 1.0
%
% Reference pressure
REF_PRESSURE= 101325.0
%
% Reference temperature
REF_TEMPERATURE= 273.15
%
% Reference density (1.2886 Kg/m^3 (air), 998.2 Kg/m^3 (water)) 
REF_DENSITY= 1.2886

% ----------------------- BOUNDARY CONDITION DEFINITION -----------------------%
% Marker of the Navier-Stokes boundary (NONE = no marker)
MARKER_HEATFLUX= ( AIRCRAFT_BODY_FUSE, 0.0, AIRCRAFT_BODY_FAIRING, 0.0, AIRCRAFT_BODY_WINGU, 0.0, AIRCRAFT_BODY_WINGL, 0.0, AIRCRAFT_BODY_WINGTE_2D, AIRCRAFT_BODY_TAILU_2D, 0.0, AIRCRAFT_BODY_TAILL_2D, 0.0, AIRCRAFT_BODY_TAILTE_2D, 0.0)
%
% Marker of the far field (NONE = no marker)
MARKER_FAR= ( FAR_2D )
%
% Marker of symmetry boundary (NONE = no marker)
MARKER_SYM= ( SYMM_2D )
%
% Marker of the surface which is going to be plotted or designed
MARKER_PLOTTING= (  AIRCRAFT_BODY_FUSE, AIRCRAFT_BODY_FAIRING, AIRCRAFT_BODY_WINGU, AIRCRAFT_BODY_WINGL, AIRCRAFT_BODY_WINGTE_2D, AIRCRAFT_BODY_TAILU_2D, AIRCRAFT_BODY_TAILL_2D, AIRCRAFT_BODY_TAILTE_2D )
%
% Marker of the surface where the functional (Cd, Cl, etc.) will be evaluated
MARKER_MONITORING= (   AIRCRAFT_BODY_FUSE, AIRCRAFT_BODY_FAIRING, AIRCRAFT_BODY_WINGU, AIRCRAFT_BODY_WINGL, AIRCRAFT_BODY_WINGTE_2D, AIRCRAFT_BODY_TAILU_2D, AIRCRAFT_BODY_TAILL_2D, AIRCRAFT_BODY_TAILTE_2D )

% ------------- COMMON PARAMETERS TO DEFINE THE NUMERICAL METHOD --------------%
% Numerical method for spatial gradients (GREEN_GAUSS, LEAST_SQUARES, 
%                                         WEIGHTED_LEAST_SQUARES)
NUM_METHOD_GRAD= GREEN_GAUSS
%
% Courant-Friedrichs-Lewy condition of the finest grid
CFL_NUMBER= 2.0
%
% CFL ramp (factor, number of iterations, CFL limit)
CFL_RAMP= ( 1.00, 50, 2.0 )
%
% Number of total iterations
EXT_ITER= 1

% -------------------------- MULTIGRID PARAMETERS -----------------------------%
% Multi-Grid Levels (0 = no multi-grid)
MGLEVEL= 0
%
% Multi-Grid Cycle (0 = V cycle, 1 = W Cycle)
MGCYCLE= 0
%
% Multi-Grid PreSmoothing Level
MG_PRE_SMOOTH= ( 1, 1, 1, 1 )
%
% Multi-Grid PostSmoothing Level
MG_POST_SMOOTH= ( 1, 1, 1, 1 )
%
% Jacobi implicit smoothing of the correction
MG_CORRECTION_SMOOTH= ( 1, 1, 1, 1 )
%
% Damping factor for the residual restriction
MG_DAMP_RESTRICTION= 0.85
%
% Damping factor for the correction prolongation
MG_DAMP_PROLONGATION= 0.85
%
% Restart Multi-Grid cycle with the interpolated solution (NO, YES)
MG_RESTART_CYCLE= YES

% --------------------- FLOW NUMERICAL METHOD DEFINITION ----------------------%
% Convective numerical method (JST, LAX-FRIEDRICH, ROE-1ST_ORDER, 
%                              ROE-2ND_ORDER)
CONV_NUM_METHOD_FLOW= ROE-2ND_ORDER
%
% Slope limiter (NONE, VENKATAKRISHNAN)
SLOPE_LIMITER_FLOW= VENKATAKRISHNAN
%
% Coefficient for the limiter (smooth regions)
LIMITER_COEFF= 0.3
%
% 1st, 2nd and 4th order artificial dissipation coefficients
AD_COEFF_FLOW= ( 0.15, 0.5, 0.02 )
%
% Viscous numerical method (AVG_GRAD, AVG_GRAD_CORRECTED, 
%                           GALERKIN)
VISC_NUM_METHOD_FLOW= AVG_GRAD_CORRECTED
%
% Time discretization (RUNGE-KUTTA_EXPLICIT, EULER_IMPLICIT, EULER_EXPLICIT)
TIME_DISCRE_FLOW= EULER_IMPLICIT

% -------------------- TURBULENT NUMERICAL METHOD DEFINITION ------------------%
% Convective numerical method (SCALAR_UPWIND-1ST_ORDER, 
%                              SCALAR_UPWIND-2ND_ORDER)
CONV_NUM_METHOD_TURB= SCALAR_UPWIND-1ST_ORDER
%
% Viscous numerical method (AVG_GRAD, AVG_GRAD_CORRECTED)
VISC_NUM_METHOD_TURB= AVG_GRAD_CORRECTED
%
% Source term numerical method (PIECEWISE_CONSTANT)
SOUR_NUM_METHOD_TURB= PIECEWISE_CONSTANT
%
% Time discretization (EULER_IMPLICIT)
TIME_DISCRE_TURB= EULER_IMPLICIT

% --------------------------- PARTITIONING STRATEGY ---------------------------%
% Number of partitions of the domain
NUMBER_PART= 16
%
% Write a paraview file for each partition (NO, YES)
VISUALIZE_PART= NO

% --------------------------- CONVERGENCE PARAMETERS --------------------------%
% Convergence criteria (CAUCHY, RESIDUAL)
%
CONV_CRITERIA= CAUCHY
%
% Residual reduction (order of magnitude with respect to the initial value)
RESIDUAL_REDUCTION= 3
%
% Min value of the residual (log10 of the residual)
RESIDUAL_MINVAL= -8
%
% Start convergence criteria at iteration number
STARTCONV_ITER= 50
%
% Number of elements to apply the criteria
CAUCHY_ELEMS= 100
%
% Epsilon to control the series convergence
CAUCHY_EPS= 1E-4
%
% Function to apply the criteria (LIFT, DRAG, SENS_GEOMETRY, SENS_MACH,
%                                 DELTA_LIFT, DELTA_DRAG)
CAUCHY_FUNC_FLOW= DRAG
%
% Epsilon for One-Shot method evaluation
ONESHOT_CAUCHY_EPS= 1E-5
%
% Epsilon for full multigrid method evaluation
FULLMG_CAUCHY_EPS= 1E-4

% ------------------------- INPUT/OUTPUT INFORMATION --------------------------%
% Mesh input file
MESH_FILENAME= ANSYS_coarse_uns_corrected.cgns
%MESH_FILENAME= ANSYS_coarse_uns.su2
%
% Mesh input file format (SU2, CGNS, NETCDF_ASCII)
%MESH_FORMAT= SU2
MESH_FORMAT= CGNS
%
% Convert a CGNS mesh to SU2 format (YES, NO)
CGNS_TO_SU2= YES
%
% Converted SU2 mesh filename
NEW_SU2_FILENAME= ANSYS_coarse_uns.su2
%
% Restart flow input file
SOLUTION_FLOW_FILENAME= solution_flow.dat
%
% Output file format (PARAVIEW, TECPLOT)
OUTPUT_FORMAT= TECPLOT
%
% Output file convergence history (w/o extension) 
CONV_FILENAME= history
%
% Output file residual
RESIDUAL_FILENAME= residual.vtk
%
% Output file restart flow
RESTART_FLOW_FILENAME= restart_flow.dat
%
% Output file flow (w/o extension) variables
VOLUME_FLOW_FILENAME= flow
%
% Output file gradient conservative variables
GRAD_FILENAME= gradient.vtk
%
% Output file surface flow coefficient (w/o extension)
SURFACE_FLOW_FILENAME= surface_flow
%
% Writing solution file frequency
WRT_SOL_FREQ= 250
%
% Writing convergence history frequency
WRT_CON_FREQ= 1
