%%%%%%%%%%%%%%%%%%%%%%%%%%%%%%%%%%%%%%%%%%%%%%%%%%%%%%%%%%%%%%%%%%%%%%%%%%%%%%%%
% SU2 configuration file                                                       %
% Case description: Regression test for structural adjoints                    %
% Author: R.Sanchez                                                            %
% Institution: Imperial College London                                         %
% Date: 2017.11.29                                                             %
% File Version 8.0.0 "Harrier"                                                 %
%%%%%%%%%%%%%%%%%%%%%%%%%%%%%%%%%%%%%%%%%%%%%%%%%%%%%%%%%%%%%%%%%%%%%%%%%%%%%%%%

SOLVER= ELASTICITY
KIND_TURB_MODEL= NONE

MATH_PROBLEM= DISCRETE_ADJOINT

RESTART_SOL= NO

ITER = 10

OBJECTIVE_FUNCTION = REFERENCE_GEOMETRY 
REFERENCE_GEOMETRY = YES

REFERENCE_GEOMETRY_FILENAME = reference_geometry.dat
REFERENCE_GEOMETRY_FORMAT = SU2
REFERENCE_GEOMETRY_PENALTY = 1E6
% Consider only the surface
REFERENCE_GEOMETRY_SURFACE = NO

READ_BINARY_RESTART=NO

MESH_FILENAME= mesh.su2

MARKER_CLAMPED = ( Clamped )
MARKER_PRESSURE= ( LowerBeamS, 0.0, UpperBeamS, 1.00, RightBeamS, 0.0)

GEOMETRIC_CONDITIONS= LARGE_DEFORMATIONS
MATERIAL_MODEL= NEO_HOOKEAN
MATERIAL_COMPRESSIBILITY= COMPRESSIBLE

ELASTICITY_MODULUS=21000
POISSON_RATIO=0.4
MATERIAL_DENSITY=100
DEAD_LOAD=NO
FORMULATION_ELASTICITY_2D = PLANE_STRAIN

NONLINEAR_FEM_SOLUTION_METHOD = NEWTON_RAPHSON

CONV_FILENAME= history
VOLUME_FILENAME= beam
BREAKDOWN_FILENAME= forces_breakdown.dat

SOLUTION_FILENAME= solution_beam.dat
RESTART_FILENAME= restart_beam.dat

SOLUTION_ADJ_FILENAME= solution_adj.dat
RESTART_ADJ_FILENAME= restart_adj.dat

MESH_FORMAT= SU2
TABULAR_FORMAT= CSV

OUTPUT_WRT_FREQ= 1

LINEAR_SOLVER= CONJUGATE_GRADIENT
LINEAR_SOLVER_PREC= JACOBI
LINEAR_SOLVER_ERROR= 1E-8
LINEAR_SOLVER_ITER= 1000

DISCADJ_LIN_SOLVER= CONJUGATE_GRADIENT
DISCADJ_LIN_PREC= JACOBI

OUTPUT_FILES=(RESTART_ASCII)
