%%%%%%%%%%%%%%%%%%%%%%%%%%%%%%%%%%%%%%%%%%%%%%%%%%%%%%%%%%%%%%%%%%%%%%%%%%%%%%%%
%                                                                              %
% SU2 configuration file                                                       %
% Case description: Buoyancy-driven flow inside a cavity                       %
% Author: Thomas D. Economon                                                   %
% Date: 2018.06.10                                                             %
% File Version 8.3.0 "Harrier"                                                 %
%                                                                              %
%%%%%%%%%%%%%%%%%%%%%%%%%%%%%%%%%%%%%%%%%%%%%%%%%%%%%%%%%%%%%%%%%%%%%%%%%%%%%%%%

% ------------- DIRECT, ADJOINT, AND LINEARIZED PROBLEM DEFINITION ------------%
%
SOLVER= INC_NAVIER_STOKES
KIND_TURB_MODEL= NONE
MATH_PROBLEM= DIRECT
RESTART_SOL= NO

% ---------------- INCOMPRESSIBLE FLOW CONDITION DEFINITION -------------------%
%
INC_DENSITY_MODEL= VARIABLE
INC_ENERGY_EQUATION = YES
%
% Uncomment a density below for a desired Rayleigh number
%INC_DENSITY_INIT= 0.00018903539834  % Ra ~ 1e3
%INC_DENSITY_INIT= 0.00059778241716  % Ra ~ 1e4
%INC_DENSITY_INIT= 0.00189035398341  % Ra ~ 1e5
INC_DENSITY_INIT= 0.00597782417156  % Ra ~ 1e6
%
INC_VELOCITY_INIT= ( 1.0, 0.0, 0.0 )
INC_TEMPERATURE_INIT= 288.15

% ---- IDEAL GAS, POLYTROPIC, VAN DER WAALS AND PENG ROBINSON CONSTANTS -------%
%
FLUID_MODEL= INC_IDEAL_GAS
SPECIFIC_HEAT_CP= 1004.703
MOLECULAR_WEIGHT= 28.96

% --------------------------- VISCOSITY MODEL ---------------------------------%
%
VISCOSITY_MODEL= CONSTANT_VISCOSITY
MU_CONSTANT= 1.716e-5

% --------------------------- THERMAL CONDUCTIVITY MODEL ----------------------%
%
CONDUCTIVITY_MODEL= CONSTANT_CONDUCTIVITY
THERMAL_CONDUCTIVITY_CONSTANT= 0.0246295028571

% ----------------------- BODY FORCE DEFINITION -------------------------------%
%
BODY_FORCE= YES
BODY_FORCE_VECTOR= ( 0.0, -9.81, 0.0 )

% ---------------------- REFERENCE VALUE DEFINITION ---------------------------%
%
REF_ORIGIN_MOMENT_X = 0.25
REF_ORIGIN_MOMENT_Y = 0.00
REF_ORIGIN_MOMENT_Z = 0.00
REF_AREA= 1.0

% -------------------- BOUNDARY CONDITION DEFINITION --------------------------%
%
MARKER_HEATFLUX= ( upper, 0.0, lower, 0.0 )
MARKER_ISOTHERMAL= ( left, 461.04, right, 115.26 )
MARKER_PLOTTING= ( upper, left, right, lower )
MARKER_MONITORING= ( left, right,upper )

% ------------- COMMON PARAMETERS DEFINING THE NUMERICAL METHOD ---------------%
%
NUM_METHOD_GRAD= GREEN_GAUSS
CFL_NUMBER= 20
CFL_ADAPT= YES
CFL_ADAPT_PARAM= ( 0.95, 1.01, 10, 1000, 0.001, 0)
MAX_DELTA_TIME= 1E6
RK_ALPHA_COEFF= ( 0.66667, 0.66667, 1.000000 )
ITER= 99999

% ------------------------ LINEAR SOLVER DEFINITION ---------------------------%
%
LINEAR_SOLVER= FGMRES
LINEAR_SOLVER_PREC= ILU
LINEAR_SOLVER_ILU_FILL_IN= 0
LINEAR_SOLVER_ERROR= 1E-06
LINEAR_SOLVER_ITER= 25

% -------------------- FLOW NUMERICAL METHOD DEFINITION -----------------------%
%
CONV_NUM_METHOD_FLOW= FDS
MUSCL_FLOW= YES
SLOPE_LIMITER_FLOW= NONE
TIME_DISCRE_FLOW= EULER_IMPLICIT


% --------------------------- CONVERGENCE PARAMETERS --------------------------%
%
CONV_RESIDUAL_MINVAL= -12
CONV_STARTITER= 10
CONV_CAUCHY_ELEMS= 100
CONV_CAUCHY_EPS= 1E-6

% ------------------------- INPUT/OUTPUT INFORMATION --------------------------%
%
MESH_FILENAME= mesh_cavity_65x65.su2
MESH_FORMAT= SU2
MESH_OUT_FILENAME= mesh_out
SOLUTION_FILENAME= solution_flow
SOLUTION_ADJ_FILENAME= solution_adj
TABULAR_FORMAT= CSV
CONV_FILENAME= history
RESTART_FILENAME= restart_flow
RESTART_ADJ_FILENAME= restart_adj
VOLUME_FILENAME= flow
VOLUME_ADJ_FILENAME= adjoint
GRAD_OBJFUNC_FILENAME= of_grad
SURFACE_FILENAME= surface_flow
SURFACE_ADJ_FILENAME= surface_adjoint
OUTPUT_WRT_FREQ= 100
SCREEN_OUTPUT= (INNER_ITER, RMS_PRESSURE, RMS_VELOCITY-X, RMS_ENTHALPY, TOTAL_HEATFLUX)
% ----------------------- GEOMETRY EVALUATION PARAMETERS ----------------------%
GEO_BOUNDS= ( 0.499, 0.501)
