%%%%%%%%%%%%%%%%%%%%%%%%%%%%%%%%%%%%%%%%%%%%%%%%%%%%%%%%%%%%%%%%%%%%%%%%%%%%%%%%%
%                                                                               %
% SU2 configuration file                                                        %
% Case description: 2D cylinder array with CHT couplings                        %
% Author: O. Burghardt, T. Economon                                             %
% Institution: Chair for Scientific Computing, TU Kaiserslautern                %
% Date: August 8, 2019                                                          %
% File Version 6.0.1 "Falcon"                                                   %
%                                                                               %
%%%%%%%%%%%%%%%%%%%%%%%%%%%%%%%%%%%%%%%%%%%%%%%%%%%%%%%%%%%%%%%%%%%%%%%%%%%%%%%%%
%
% Mathematical problem (DIRECT, CONTINUOUS_ADJOINT, DISCRETE_ADJOINT)
MATH_PROBLEM= DIRECT
%
% When do I have to use this again!? There was a rather nasty bug I recall if the option is nnot set
%KIND_INTERPOLATION= RADIAL_BASIS_FUNCTION
%          
SOLVER= MULTIPHYSICS
%
CONFIG_LIST= (configFluid.cfg, configSolid.cfg)
%
MARKER_ZONE_INTERFACE= ( fluid_pin1_interface, solid_pin1_interface, fluid_pin2_interface, solid_pin2_interface, fluid_pin3_interface, solid_pin3_interface )
%
MARKER_CHT_INTERFACE= ( fluid_pin1_interface, solid_pin1_interface, fluid_pin2_interface, solid_pin2_interface, fluid_pin3_interface, solid_pin3_interface )
%
TIME_DOMAIN = NO
%
SCREEN_OUTPUT= ( OUTER_ITER, BGS_PRESSURE[0], BGS_TEMPERATURE[0], BGS_TEMPERATURE[1], STREAMWISE_MASSFLOW[0], STREAMWISE_DP[0], AVG_TEMPERATURE[1] )
%
HISTORY_OUTPUT= ( ITER, BGS_RES[0], BGS_RES[1], RMS_RES[0], RMS_RES[1], STREAMWISE_PERIODIC[0], FLOW_COEFF[0], HEAT[1], LINSOL[0], LINSOL[1], HEAT[0] )
%
CONV_RESIDUAL_MINVAL= -26
%
% Number of total iterations
OUTER_ITER= 4000
%
OUTPUT_WRT_FREQ= 1000
%
SCREEN_WRT_FREQ_OUTER= 25
%
%CHT_ROBIN= NO
%
OUTPUT_FILES= (RESTART, PARAVIEW_MULTIBLOCK)
%
% Mesh input file
MESH_FILENAME= 2D-PinArray.su2
%
%SPECIFIC_HEAT_CP = 871.0
%
% Mesh input file format (SU2, CGNS, NETCDF_ASCII)
MESH_FORMAT= SU2
%
GRAD_OBJFUNC_FILENAME= of_grad.csv
%
% -------------------- FREE-FORM DEFORMATION PARAMETERS -----------------------%
%
% Tolerance of the Free-Form Deformation point inversion
FFD_TOLERANCE= 1E-10
%
% Maximum number of iterations in the Free-Form Deformation point inversion
FFD_ITERATIONS= 500
%
% FFD box definition: 3D case (FFD_BoxTag, X1, Y1, Z1, X2, Y2, Z2, X3, Y3, Z3, X4, Y4, Z4,
%                              X5, Y5, Z5, X6, Y6, Z6, X7, Y7, Z7, X8, Y8, Z8)
%                     2D case (FFD_BoxTag, X1, Y1, 0.0, X2, Y2, 0.0, X3, Y3, 0.0, X4, Y4, 0.0,
%                              0.0, 0.0, 0.0, 0.0, 0.0, 0.0, 0.0, 0.0, 0.0, 0.0, 0.0, 0.0)
FFD_DEFINITION= (BOX,  0.0029772,0.0,0.0,  0.0081772,0.0,0.0  0.0081772,0.0026,0.0,  0.0029772,0.0026,0.0, 0.0,0.0,0.0,  0.0,0.0,0.0  0.0,0.0,0.0,  0.0,0.0,0.0 )
%
% FFD box degree: 3D case (x_degree, y_degree, z_degree)
%                 2D case (x_degree, y_degree, 0)
FFD_DEGREE= (8, 1, 0)
%
% Surface grid continuity at the intersection with the faces of the FFD boxes.
% To keep a particular level of surface continuity, SU2 automatically freezes the right
% number of control point planes (NO_DERIVATIVE, 1ST_DERIVATIVE, 2ND_DERIVATIVE, USER_INPUT)
FFD_CONTINUITY= NO_DERIVATIVE
%
% Definition of the FFD planes to be frozen in the FFD (x,y,z).
% Value from 0 FFD degree in that direction. Pick a value larger than degree if you don't want to fix any plane.
%FFD_FIX_I= (0,2,3)
%FFD_FIX_J= (0,2,3)
%FFD_FIX_K= (0,2,3)

% ----------------------- DESIGN VARIABLE PARAMETERS --------------------------%
%
% Kind of deformation (NO_DEFORMATION, SCALE_GRID, TRANSLATE_GRID, ROTATE_GRID,
%                      FFD_SETTING, FFD_NACELLE,
%                      FFD_CONTROL_POINT, FFD_CAMBER, FFD_THICKNESS, FFD_TWIST
%                      FFD_CONTROL_POINT_2D, FFD_CAMBER_2D, FFD_THICKNESS_2D, 
%                      FFD_TWIST_2D, HICKS_HENNE, SURFACE_BUMP, SURFACE_FILE)
%DV_KIND= FFD_SETTING
DV_KIND= FFD_CONTROL_POINT_2D,FFD_CONTROL_POINT_2D,FFD_CONTROL_POINT_2D,FFD_CONTROL_POINT_2D,FFD_CONTROL_POINT_2D,FFD_CONTROL_POINT_2D,FFD_CONTROL_POINT_2D,FFD_CONTROL_POINT_2D,FFD_CONTROL_POINT_2D,FFD_CONTROL_POINT_2D,FFD_CONTROL_POINT_2D,FFD_CONTROL_POINT_2D,FFD_CONTROL_POINT_2D,FFD_CONTROL_POINT_2D,FFD_CONTROL_POINT_2D,FFD_CONTROL_POINT_2D,FFD_CONTROL_POINT_2D,FFD_CONTROL_POINT_2D
%
% Marker of the surface in which we are going apply the shape deformation
DV_MARKER= ( fluid_pin2_interface, solid_pin2_interface )
%
% Parameters of the shape deformation
% - NO_DEFORMATION ( 1.0 )
% - FFD_SETTING ( 1.0 )
% - FFD_CONTROL_POINT ( FFD_BoxTag, i_Ind, j_Ind, k_Ind, x_Disp, y_Disp, z_Disp )
% - FFD_CONTROL_POINT_2D ( FFD_BoxTag, i_Ind, j_Ind, x_Disp, y_Disp )
%DV_PARAM= ( 1.0 )
DV_PARAM= ( BOX, 0, 0, 0.0, 1.0);( BOX, 1, 0, 0.0, 1.0); ( BOX, 2, 0, 0.0, 1.0); ( BOX, 3, 0, 0.0, 1.0); ( BOX, 4, 0, 0.0, 1.0); ( BOX, 5, 0, 0.0, 1.0); ( BOX, 6, 0, 0.0, 1.0); ( BOX, 7, 0, 0.0, 1.0); ( BOX, 8, 0, 0.0, 1.0); ( BOX, 0, 1, 0.0, 1.0); ( BOX, 1, 1, 0.0, 1.0); ( BOX, 2, 1, 0.0, 1.0); ( BOX, 3, 1, 0.0, 1.0); ( BOX, 4, 1, 0.0, 1.0); ( BOX, 5, 1, 0.0, 1.0); ( BOX, 6, 1, 0.0, 1.0); ( BOX, 7, 1, 0.0, 1.0); ( BOX, 8, 1, 0.0, 1.0)
%
% Value of the shape deformation
%DV_VALUE= 1.0
%DV_VALUE= 0.0015,0.015,0.15,0.0,0.0,0.0,0.0,0.0,0.0,0.0,0.0,0.0,0.0,0.0,0.0,0.0,0.0,0.0
DV_VALUE= 1.0,1.0,1.0,1.0,1.0,1.0,1.0,1.0,1.0,1.0,1.0,1.0,1.0,1.0,1.0,1.0,1.0,1.0
% ------------------------ GRID DEFORMATION PARAMETERS ------------------------%
%
% Linear solver or smoother for implicit formulations (FGMRES, RESTARTED_FGMRES, BCGSTAB)
DEFORM_LINEAR_SOLVER= FGMRES
%
% Preconditioner of the Krylov linear solver (ILU, LU_SGS, JACOBI)
DEFORM_LINEAR_SOLVER_PREC= ILU
%
% Number of smoothing iterations for mesh deformation
DEFORM_LINEAR_SOLVER_ITER= 1000
%
% Number of nonlinear deformation iterations (surface deformation increments)
DEFORM_NONLINEAR_ITER= 10
%
% Minimum residual criteria for the linear solver convergence of grid deformation
DEFORM_LINEAR_SOLVER_ERROR= 1E-14
%
% Print the residuals during mesh deformation to the console (YES, NO)
DEFORM_CONSOLE_OUTPUT= YES
%
% Deformation coefficient (linear elasticity limits from -1.0 to 0.5, a larger
% value is also possible)
DEFORM_COEFF = 1E6
%
% Type of element stiffness imposed for FEA mesh deformation (INVERSE_VOLUME,
%                                           WALL_DISTANCE, CONSTANT_STIFFNESS)
DEFORM_STIFFNESS_TYPE= WALL_DISTANCE
%
% Deform the grid only close to the surface. It is possible to specify how much
% of the volumetric grid is going to be deformed in meters or inches (1E6 by default)
DEFORM_LIMIT = 1E6
%
% Visualize the surface deformation (NO, YES)
VISUALIZE_SURFACE_DEF= YES
%
% Visualize the volume deformation (NO, YES)
VISUALIZE_VOLUME_DEF= YES
 
 
% Available design variables
% 2D Design variables
%    FFD_CONTROL_POINT_2D   (  19, Scale | Mark. List | FFD_BoxTag, i_Ind, j_Ind, x_Mov, y_Mov )
% FFD_CONTROL_POINT (X)
%DEFINITION_DV= ( 19, 1.0 | fluid_pin2_interface | BOX, 0, 0, 1.0, 0.0 ); ( 19, 1.0 | fluid_pin2_interface | BOX, 1, 0, 1.0, 0.0 ); ( 19, 1.0 | fluid_pin2_interface | BOX, 2, 0, 1.0, 0.0 ); ( 19, 1.0 | fluid_pin2_interface | BOX, 3, 0, 1.0, 0.0 ); ( 19, 1.0 | fluid_pin2_interface | BOX, 4, 0, 1.0, 0.0 ); ( 19, 1.0 | fluid_pin2_interface | BOX, 5, 0, 1.0, 0.0 ); ( 19, 1.0 | fluid_pin2_interface | BOX, 6, 0, 1.0, 0.0 ); ( 19, 1.0 | fluid_pin2_interface | BOX, 7, 0, 1.0, 0.0 ); ( 19, 1.0 | fluid_pin2_interface | BOX, 8, 0, 1.0, 0.0 ); ( 19, 1.0 | fluid_pin2_interface | BOX, 0, 1, 1.0, 0.0 ); ( 19, 1.0 | fluid_pin2_interface | BOX, 1, 1, 1.0, 0.0 ); ( 19, 1.0 | fluid_pin2_interface | BOX, 2, 1, 1.0, 0.0 ); ( 19, 1.0 | fluid_pin2_interface | BOX, 3, 1, 1.0, 0.0 ); ( 19, 1.0 | fluid_pin2_interface | BOX, 4, 1, 1.0, 0.0 ); ( 19, 1.0 | fluid_pin2_interface | BOX, 5, 1, 1.0, 0.0 ); ( 19, 1.0 | fluid_pin2_interface | BOX, 6, 1, 1.0, 0.0 ); ( 19, 1.0 | fluid_pin2_interface | BOX, 7, 1, 1.0, 0.0 ); ( 19, 1.0 | fluid_pin2_interface | BOX, 8, 1, 1.0, 0.0 )
 
% FFD_CONTROL_POINT (Y)
DEFINITION_DV= ( 19, 1.0 | fluid_pin2_interface, solid_pin2_interface | BOX, 0, 0, 0.0, 1.0 ); ( 19, 1.0 | fluid_pin2_interface, solid_pin2_interface | BOX, 1, 0, 0.0, 1.0 ); ( 19, 1.0 | fluid_pin2_interface, solid_pin2_interface | BOX, 2, 0, 0.0, 1.0 ); ( 19, 1.0 | fluid_pin2_interface, solid_pin2_interface | BOX, 3, 0, 0.0, 1.0 ); ( 19, 1.0 | fluid_pin2_interface, solid_pin2_interface | BOX, 4, 0, 0.0, 1.0 ); ( 19, 1.0 | fluid_pin2_interface, solid_pin2_interface | BOX, 5, 0, 0.0, 1.0 ); ( 19, 1.0 | fluid_pin2_interface, solid_pin2_interface | BOX, 6, 0, 0.0, 1.0 ); ( 19, 1.0 | fluid_pin2_interface, solid_pin2_interface | BOX, 7, 0, 0.0, 1.0 ); ( 19, 1.0 | fluid_pin2_interface, solid_pin2_interface | BOX, 8, 0, 0.0, 1.0 ); ( 19, 1.0 | fluid_pin2_interface, solid_pin2_interface | BOX, 0, 1, 0.0, 1.0 ); ( 19, 1.0 | fluid_pin2_interface, solid_pin2_interface | BOX, 1, 1, 0.0, 1.0 ); ( 19, 1.0 | fluid_pin2_interface, solid_pin2_interface | BOX, 2, 1, 0.0, 1.0 ); ( 19, 1.0 | fluid_pin2_interface, solid_pin2_interface | BOX, 3, 1, 0.0, 1.0 ); ( 19, 1.0 | fluid_pin2_interface, solid_pin2_interface | BOX, 4, 1, 0.0, 1.0 ); ( 19, 1.0 | fluid_pin2_interface, solid_pin2_interface | BOX, 5, 1, 0.0, 1.0 ); ( 19, 1.0 | fluid_pin2_interface, solid_pin2_interface | BOX, 6, 1, 0.0, 1.0 ); ( 19, 1.0 | fluid_pin2_interface, solid_pin2_interface | BOX, 7, 1, 0.0, 1.0 ); ( 19, 1.0 | fluid_pin2_interface, solid_pin2_interface | BOX, 8, 1, 0.0, 1.0 )
%DEFORM_MESH= YES
