%%%%%%%%%%%%%%%%%%%%%%%%%%%%%%%%%%%%%%%%%%%%%%%%%%%%%%%%%%%%%%%%%%%%%%%%%%%%%%%%%
%                                                                               %
% SU2 configuration file                                                        %
% Case description: 2D cylinder array with CHT couplings                        %
% Author: T. Kattmann                                                           %
% Institution: Robert Bosch GmbH                                                %
% Date: 2020.12.15                                                              %
% File Version 7.3.1 "Blackbird"                                                %
%                                                                               %
%%%%%%%%%%%%%%%%%%%%%%%%%%%%%%%%%%%%%%%%%%%%%%%%%%%%%%%%%%%%%%%%%%%%%%%%%%%%%%%%%
%
SOLVER= MULTIPHYSICS
%
CONFIG_LIST= (configFluid.cfg, configSolid.cfg)
%
MARKER_ZONE_INTERFACE= ( fluid_pin1_interface, solid_pin1_interface, fluid_pin2_interface, solid_pin2_interface, fluid_pin3_interface, solid_pin3_interface )
%
MARKER_CHT_INTERFACE= ( fluid_pin1_interface, solid_pin1_interface, fluid_pin2_interface, solid_pin2_interface, fluid_pin3_interface, solid_pin3_interface )
%
CONV_RESIDUAL_MINVAL= -26
%
% Number of total iterations
OUTER_ITER= 3000
%
%CHT_ROBIN= NO
%
SCREEN_OUTPUT= (OUTER_ITER, BGS_ADJ_PRESSURE[0], BGS_ADJ_TEMPERATURE[0], BGS_ADJ_TEMPERATURE[1])
SCREEN_WRT_FREQ_OUTER= 100
%
HISTORY_OUTPUT= ( ITER, BGS_RES[0], BGS_RES[1], RMS_RES[0], RMS_RES[1] )
%
OUTPUT_FILES= ( RESTART, PARAVIEW_MULTIBLOCK )
OUTPUT_WRT_FREQ= 1000
%
MESH_FILENAME= 2D-PinArray_FFD.su2
MESH_FORMAT= SU2
%
SOLUTION_ADJ_FILENAME= restart_adj
%
% -------------------- FREE-FORM DEFORMATION PARAMETERS -----------------------%
%
FFD_TOLERANCE= 1E-10
FFD_ITERATIONS= 500
%
% FFD box definition: 2D case (FFD_BoxTag, X1, Y1, 0.0, X2, Y2, 0.0, X3, Y3, 0.0, X4, Y4, 0.0,
%                              0.0, 0.0, 0.0, 0.0, 0.0, 0.0, 0.0, 0.0, 0.0, 0.0, 0.0, 0.0)
FFD_DEFINITION= (BOX,  0.0029772,0.0,0.0,  0.0081772,0.0,0.0  0.0081772,0.0026,0.0,  0.0029772,0.0026,0.0, 0.0,0.0,0.0,  0.0,0.0,0.0  0.0,0.0,0.0,  0.0,0.0,0.0 )
%
% FFD box degree: 2D case (x_degree, y_degree, 0)
FFD_DEGREE= (8, 1, 0)
%
% Surface grid continuity at the intersection with the faces of the FFD boxes.
% To keep a particular level of surface continuity, SU2 automatically freezes the right
% number of control point planes (NO_DERIVATIVE, 1ST_DERIVATIVE, 2ND_DERIVATIVE, USER_INPUT)
FFD_CONTINUITY= NO_DERIVATIVE
%
% ----------------------- DESIGN VARIABLE PARAMETERS --------------------------%
%
%DV_KIND= FFD_SETTING
DV_KIND= FFD_CONTROL_POINT_2D,FFD_CONTROL_POINT_2D,FFD_CONTROL_POINT_2D,FFD_CONTROL_POINT_2D,FFD_CONTROL_POINT_2D,FFD_CONTROL_POINT_2D,FFD_CONTROL_POINT_2D,FFD_CONTROL_POINT_2D,FFD_CONTROL_POINT_2D
%
% Marker of the surface in which we are going apply the shape deformation
MARKER_SYM= ( fluid_symmetry  )
DV_MARKER= ( fluid_pin2_interface, solid_pin2_interface, fluid_symmetry )
%
% Parameters of the shape deformation
% - FFD_SETTING ( 1.0 )
% - FFD_CONTROL_POINT_2D ( FFD_BoxTag, i_Ind, j_Ind, x_Disp, y_Disp )
%DV_PARAM= ( 1.0 )
DV_PARAM= \
( BOX, 0, 1, 0.0, 1.0);\
( BOX, 1, 1, 0.0, 1.0);\
( BOX, 2, 1, 0.0, 1.0);\
( BOX, 3, 1, 0.0, 1.0);\
( BOX, 4, 1, 0.0, 1.0);\
( BOX, 5, 1, 0.0, 1.0);\
( BOX, 6, 1, 0.0, 1.0);\
( BOX, 7, 1, 0.0, 1.0);\
( BOX, 8, 1, 0.0, 1.0)
%
% Value of the shape deformation
%DV_VALUE= 1.0
DV_VALUE= 1.0,1.0,1.0,1.0,1.0,1.0,1.0,1.0,1.0
%
% ------------------------ GRID DEFORMATION PARAMETERS ------------------------%
%
DEFORM_LINEAR_SOLVER= FGMRES
DEFORM_LINEAR_SOLVER_PREC= ILU
DEFORM_LINEAR_SOLVER_ERROR= 1E-14
%
DEFORM_NONLINEAR_ITER= 1
DEFORM_LINEAR_SOLVER_ITER= 1000
%
DEFORM_CONSOLE_OUTPUT= YES
DEFORM_STIFFNESS_TYPE= WALL_DISTANCE
%
% Deformation coefficient (linear elasticity limits from -1.0 to 0.5, a larger
% value is also possible)
% !!! What is this doing !!!
DEFORM_COEFF = 1E6
%
DEFINITION_DV= \
( 19, 1.0 | fluid_pin2_interface, solid_pin2_interface, fluid_symmetry | BOX, 0, 1, 0.0, 1.0 );\
( 19, 1.0 | fluid_pin2_interface, solid_pin2_interface, fluid_symmetry | BOX, 1, 1, 0.0, 1.0 );\
( 19, 1.0 | fluid_pin2_interface, solid_pin2_interface, fluid_symmetry | BOX, 2, 1, 0.0, 1.0 );\
( 19, 1.0 | fluid_pin2_interface, solid_pin2_interface, fluid_symmetry | BOX, 3, 1, 0.0, 1.0 );\
( 19, 1.0 | fluid_pin2_interface, solid_pin2_interface, fluid_symmetry | BOX, 4, 1, 0.0, 1.0 );\
( 19, 1.0 | fluid_pin2_interface, solid_pin2_interface, fluid_symmetry | BOX, 5, 1, 0.0, 1.0 );\
( 19, 1.0 | fluid_pin2_interface, solid_pin2_interface, fluid_symmetry | BOX, 6, 1, 0.0, 1.0 );\
( 19, 1.0 | fluid_pin2_interface, solid_pin2_interface, fluid_symmetry | BOX, 7, 1, 0.0, 1.0 );\
( 19, 1.0 | fluid_pin2_interface, solid_pin2_interface, fluid_symmetry | BOX, 8, 1, 0.0, 1.0 )

%DEFORM_MESH= YES
