%%%%%%%%%%%%%%%%%%%%%%%%%%%%%%%%%%%%%%%%%%%%%%%%%%%%%%%%%%%%%%%%%%%%%%%%%%%%%%%%%
%                                                                               %
% SU2 configuration file                                                        %
% Case description: 2D cylinder array with CHT couplings                        %
% Author: T. Kattmann                                                           %
% Institution: Robert Bosch GmbH                                                %
% Date: 2020.12.15                                                              %
% File Version 8.0.0 "Harrier"                                                  %
%                                                                               %
%%%%%%%%%%%%%%%%%%%%%%%%%%%%%%%%%%%%%%%%%%%%%%%%%%%%%%%%%%%%%%%%%%%%%%%%%%%%%%%%%
%
SOLVER= MULTIPHYSICS
%
CONFIG_LIST= (configFluid.cfg, configSolid.cfg)
%
MARKER_ZONE_INTERFACE= ( fluid_pin1_interface, solid_pin1_interface, fluid_pin2_interface, solid_pin2_interface, fluid_pin3_interface, solid_pin3_interface )
%
MARKER_CHT_INTERFACE= ( fluid_pin1_interface, solid_pin1_interface, fluid_pin2_interface, solid_pin2_interface, fluid_pin3_interface, solid_pin3_interface )
%
CONV_RESIDUAL_MINVAL= -26
%
% FOR FAST RUNING REGRESSION TEST ONLY!
% FOR GADIENT VALIDATION USE OUTER_ITER= 3000!
OUTER_ITER= 101
%
SCREEN_OUTPUT= ( WALL_TIME, OUTER_ITER, BGS_PRESSURE[0], BGS_TEMPERATURE[0], BGS_TEMPERATURE[1], STREAMWISE_MASSFLOW[0], STREAMWISE_DP[0], AVG_TEMPERATURE[1] )
SCREEN_WRT_FREQ_OUTER= 100
%
HISTORY_OUTPUT= ( ITER, BGS_RES[0], BGS_RES[1], RMS_RES[0], RMS_RES[1], STREAMWISE_PERIODIC[0], FLOW_COEFF[0], AERO_COEFF[0], HEAT[1] )
%
OUTPUT_FILES= ( RESTART, PARAVIEW_MULTIBLOCK )
OUTPUT_WRT_FREQ= 10000
%
MESH_FILENAME= 2D-PinArray_FFD.su2
MESH_FORMAT= SU2
%
% Options that have to be kept for finite_differences.py. Otherwise it won't run.
RESTART_SOL= NO
MARKER_MONITORING= ( NONE )
SOLUTION_FILENAME= restart
SOLUTION_ADJ_FILENAME= restart_adj
RESTART_FILENAME= restart
CONV_FILENAME= history
TABULAR_FORMAT= CSV

% -------------------- FREE-FORM DEFORMATION PARAMETERS -----------------------%
%
FFD_TOLERANCE= 1E-10
FFD_ITERATIONS= 500
%
FFD_DEFINITION= (BOX,  0.0029772,0.0,0.0,  0.0081772,0.0,0.0  0.0081772,0.0026,0.0,  0.0029772,0.0026,0.0, 0.0,0.0,0.0,  0.0,0.0,0.0  0.0,0.0,0.0,  0.0,0.0,0.0 )
%
FFD_DEGREE= (8, 1, 0)
%
FFD_CONTINUITY= NO_DERIVATIVE
%
% ----------------------- DESIGN VARIABLE PARAMETERS --------------------------%
%
DV_KIND= FFD_SETTING
MARKER_SYM= ( fluid_symmetry  )
DV_MARKER= ( fluid_pin2_interface, solid_pin2_interface, fluid_symmetry )
DV_PARAM= ( 1.0 )
DV_VALUE= 1.0

% ------------------------ GRID DEFORMATION PARAMETERS ------------------------%
%
DEFORM_LINEAR_SOLVER= FGMRES
DEFORM_LINEAR_SOLVER_PREC= ILU
DEFORM_LINEAR_SOLVER_ERROR= 1E-14
%
DEFORM_NONLINEAR_ITER= 1
DEFORM_LINEAR_SOLVER_ITER= 1000
%
DEFORM_CONSOLE_OUTPUT= YES
DEFORM_STIFFNESS_TYPE= WALL_DISTANCE
%
DEFORM_COEFF = 1E6
%
% For gradient validation uncomment the other DV's!
DEFINITION_DV= \
( 19, 1.0 | fluid_pin2_interface, solid_pin2_interface, fluid_symmetry | BOX, 0, 1, 0.0, 1.0 );\
%( 19, 1.0 | fluid_pin2_interface, solid_pin2_interface, fluid_symmetry | BOX, 1, 1, 0.0, 1.0 );\
%( 19, 1.0 | fluid_pin2_interface, solid_pin2_interface, fluid_symmetry | BOX, 2, 1, 0.0, 1.0 );\
%( 19, 1.0 | fluid_pin2_interface, solid_pin2_interface, fluid_symmetry | BOX, 3, 1, 0.0, 1.0 );\
%( 19, 1.0 | fluid_pin2_interface, solid_pin2_interface, fluid_symmetry | BOX, 4, 1, 0.0, 1.0 );\
%( 19, 1.0 | fluid_pin2_interface, solid_pin2_interface, fluid_symmetry | BOX, 5, 1, 0.0, 1.0 );\
%( 19, 1.0 | fluid_pin2_interface, solid_pin2_interface, fluid_symmetry | BOX, 6, 1, 0.0, 1.0 );\
%( 19, 1.0 | fluid_pin2_interface, solid_pin2_interface, fluid_symmetry | BOX, 7, 1, 0.0, 1.0 );\
%( 19, 1.0 | fluid_pin2_interface, solid_pin2_interface, fluid_symmetry | BOX, 8, 1, 0.0, 1.0 )

OPT_OBJECTIVE= AVG_TOTALTEMP
FIN_DIFF_STEP= 1e-8
NZONES=2
