% ------------- DIRECT, ADJOINT, AND LINEARIZED PROBLEM DEFINITION ------------%
%
% Solver type (EULER, NAVIER_STOKES, RANS,
%              INC_EULER, INC_NAVIER_STOKES, INC_RANS,
%              NEMO_EULER, NEMO_NAVIER_STOKES,
%              FEM_EULER, FEM_NAVIER_STOKES, FEM_RANS, FEM_LES,
%              HEAT_EQUATION_FVM, ELASTICITY)
SOLVER= RANS
MATH_PROBLEM= DIRECT
RESTART_SOL= YES
DISCARD_INFILES= NO
SYSTEM_MEASUREMENTS= SI
KIND_TURB_MODEL= SST % (NONE, SA, SST)
SST_OPTIONS= V2003m
%
% ------------------------------- SOLVER CONTROL ------------------------------%
%
ITER= 1000000
CONV_FIELD= RMS_DENSITY
CONV_RESIDUAL_MINVAL= -11
CONV_STARTITER= 10
CONV_CAUCHY_ELEMS= 100
CONV_CAUCHY_EPS= 1E-11
%
% ---------------------- REFERENCE VALUE DEFINITION ---------------------------%
%
REF_ORIGIN_MOMENT_X = 0.00
REF_ORIGIN_MOMENT_Y = 0.00
REF_ORIGIN_MOMENT_Z = 0.00
REF_LENGTH= 1.0
REF_VELOCITY= 1.0
REF_VISCOSITY= 1.0
REF_AREA= 1.0
%
% -------------------- COMPRESSIBLE FREE-STREAM DEFINITION --------------------%
%
MACH_NUMBER= 0.088
AOA= 0
INIT_OPTION= REYNOLDS
FREESTREAM_OPTION= TEMPERATURE_FS
FREESTREAM_TEMPERATURE= 300
FREESTREAM_DENSITY= 1.2886
FREESTREAM_VELOCITY= ( 30.5552677, 0.00, 0.00 )
FREESTREAM_VISCOSITY= 1.853E-5
FREESTREAM_NU_FACTOR= 3
REYNOLDS_NUMBER= 1.2e6
REYNOLDS_LENGTH= 1.0
REF_DIMENSIONALIZATION= DIMENSIONAL
%
% --------------------------- VISCOSITY MODEL ---------------------------------%
%
% Viscosity model (SUTHERLAND, CONSTANT_VISCOSITY, POLYNOMIAL_VISCOSITY, FLAMELET).
VISCOSITY_MODEL= SUTHERLAND
MU_CONSTANT= 1.716E-5
MU_REF= 1.716E-5
MU_T_REF= 273.15
SUTHERLAND_CONSTANT= 110.4
%
% -------------------- BOUNDARY CONDITION DEFINITION --------------------------%
%
% Navier-Stokes (no-slip), constant heat flux wall  marker(s) (NONE = no marker)
% Format: ( marker name, constant heat flux (J/m^2), ... )
MARKER_HEATFLUX= (airfoil, 0.0)
MARKER_FAR= (farfield)
MARKER_PLOTTING = ( airfoil )
MARKER_MONITORING = ( airfoil )
MARKER_ANALYZE_AVERAGE = AREA
%
% ------------- COMMON PARAMETERS DEFINING THE NUMERICAL METHOD ---------------%
%
% Numerical method for spatial gradients (GREEN_GAUSS, WEIGHTED_LEAST_SQUARES)
NUM_METHOD_GRAD= GREEN_GAUSS
CFL_NUMBER= 1000.0 %For coarser meshes 1000 converges fast; for finer meshes 10-100 works well
CFL_ADAPT= NO
CFL_ADAPT_PARAM= ( 0.95, 1.05, 0.001, 10000, 0.00001 )
%
% -------------------- FLOW NUMERICAL METHOD DEFINITION -----------------------%
%
CONV_NUM_METHOD_FLOW= ROE
MUSCL_FLOW= YES
SLOPE_LIMITER_FLOW= VAN_ALBADA_EDGE
TIME_DISCRE_FLOW= EULER_IMPLICIT
%
% -------------------- TURBULENT NUMERICAL METHOD DEFINITION ------------------%
%
CONV_NUM_METHOD_TURB= SCALAR_UPWIND
MUSCL_TURB= NO
SLOPE_LIMITER_TURB= VENKATAKRISHNAN
TIME_DISCRE_TURB= EULER_IMPLICIT
%
% ------------------------ LINEAR SOLVER DEFINITION ---------------------------%
%
% Linear solver for implicit formulations (BCGSTAB, FGMRES)
LINEAR_SOLVER= FGMRES
LINEAR_SOLVER_PREC= LU_SGS
LINEAR_SOLVER_ILU_FILL_IN= 0
LINEAR_SOLVER_ERROR= 1E-3
LINEAR_SOLVER_ITER= 20
%
% ------------------------- SCREEN/HISTORY VOLUME OUTPUT --------------------------%
%
SCREEN_OUTPUT= (INNER_ITER, WALL_TIME, RMS_RES, LIFT, DRAG)
HISTORY_OUTPUT= (INNER_ITER, WALL_TIME, RMS_RES, RMS_NU_TILDE, AERO_COEFF, FLOW_COEFF)
VOLUME_OUTPUT = (COORDINATES, SOLUTION, PRIMITIVE, VORTEX_IDENTIFICATION, CFL_NUMBER, MESH_QUALITY, RESIDUALS)
SCREEN_WRT_FREQ_INNER= 1
HISTORY_WRT_FREQ_INNER= 1
OUTPUT_WRT_FREQ= 500
WRT_PERFORMANCE= YES
WRT_AD_STATISTICS= YES
WRT_RESTART_OVERWRITE= YES
WRT_SURFACE_OVERWRITE= YES
WRT_VOLUME_OVERWRITE= YES
WRT_FORCES_BREAKDOWN= YES
%
% ------------------------- INPUT/OUTPUT FILE INFORMATION --------------------------%
%
MESH_FILENAME= mesh_turb_dsma661_65.su2 % mesh_turb_dsma661_65.su2, mesh_turb_dsma661_129.su2, 
                                                       %mesh_turb_dsma661_257.su2, mesh_turb_dsma661_513.su2, mesh_turb_dsma661_1025.su2
MESH_FORMAT= SU2
% 149_29, 297_57, 593_113, 1185_225, 2369_449,
RESTART_FILENAME= restart_flow-149_29.dat
VOLUME_FILENAME= flow-149_29
BREAKDOWN_FILENAME= forces_breakdown-149_29.dat
CONV_FILENAME= history-149_29
SURFACE_FILENAME= suface-149_29

MESH_OUT_FILENAME= mesh_out.su2
SOLUTION_FILENAME= sst_restart_flow-149_29.dat
TABULAR_FORMAT= CSV
OUTPUT_PRECISION= 15
% Files to output
% Possible formats : (TECPLOT_ASCII, TECPLOT, SURFACE_TECPLOT_ASCII,
%  SURFACE_TECPLOT, CSV, SURFACE_CSV, PARAVIEW_ASCII, PARAVIEW_LEGACY, SURFACE_PARAVIEW_ASCII,
%  SURFACE_PARAVIEW_LEGACY, PARAVIEW, SURFACE_PARAVIEW, RESTART_ASCII, RESTART, CGNS, SURFACE_CGNS, STL_ASCII, STL_BINARY)
% default : (RESTART, PARAVIEW, SURFACE_PARAVIEW)
OUTPUT_FILES= (RESTART, PARAVIEW, SURFACE_PARAVIEW)
VALUE_OBJFUNC_FILENAME= of_eval.dat
READ_BINARY_RESTART= YES
REORIENT_ELEMENTS= YES
%
