%%%%%%%%%%%%%%%%%%%%%%%%%%%%%%%%%%%%%%%%%%%%%%%%%%%%%%%%%%%%%%%%%%%%%%%%%%%%%%%%
%                                                                              %
% SU2 configuration file                                                       %
% Case description: Mach 15 viscous, ionized flow over a cylinder              %
%                   using the Gupta-Yos transport model.                       %
%                                                                              %
%%%%%%%%%%%%%%%%%%%%%%%%%%%%%%%%%%%%%%%%%%%%%%%%%%%%%%%%%%%%%%%%%%%%%%%%%%%%%%%%

% ------------- DIRECT, ADJOINT, AND LINEARIZED PROBLEM DEFINITION ------------%
%
SOLVER= NEMO_NAVIER_STOKES
MATH_PROBLEM= DIRECT
RESTART_SOL= YES
AXISYMMETRIC= YES

% ----------- COMPRESSIBLE AND INCOMPRESSIBLE FREE-STREAM DEFINITION ----------%
%
MACH_NUMBER=15
AOA= 0.0
SIDESLIP_ANGLE= 0.0
FREESTREAM_PRESSURE= 21.96
FREESTREAM_TEMPERATURE= 246.87
FREESTREAM_TEMPERATURE_VE= 246.87
INIT_OPTION=TD_CONDITIONS

% ---- NONEQUILIBRIUM GAS, IDEAL GAS, POLYTROPIC, VAN DER WAALS AND PENG ROBINSON CONSTANTS -------%
%
FLUID_MODEL= SU2_NONEQ
GAS_MODEL= AIR-7
GAS_COMPOSITION= (5E-13, 0.767, 0.23, 0.001, 0.001, 0.000999999999, 5E-13)
TRANSPORT_COEFF_MODEL= GUPTA-YOS

% -------------------- BOUNDARY CONDITION DEFINITION --------------------------%
%
MARKER_ISOTHERMAL=(wall, 300.0)
MARKER_FAR= (far, exit)
MARKER_SYM= (symm)
MARKER_PLOTTING= (wall)
MARKER_MONITORING= (wall)

% ------------- COMMON PARAMETERS DEFINING THE NUMERICAL METHOD ---------------%
%
NUM_METHOD_GRAD= WEIGHTED_LEAST_SQUARES
CFL_NUMBER= 3.0
ITER= 11
LINEAR_SOLVER= BCGSTAB
LINEAR_SOLVER_ERROR= 1E-6
LINEAR_SOLVER_ITER= 5

% -----------------------------------------------------------------------%
%
CONV_NUM_METHOD_FLOW= AUSM
MUSCL_FLOW= YES
SLOPE_LIMITER_FLOW= VENKATAKRISHNAN
VENKAT_LIMITER_COEFF= 0.05
TIME_DISCRE_FLOW= EULER_IMPLICIT

% --------------------------- CONVERGENCE PARAMETERS --------------------------%
%
CONV_RESIDUAL_MINVAL= -10
CONV_STARTITER= 10

% ------------------------- INPUT/OUTPUT INFORMATION --------------------------%
%
MESH_FILENAME= visc_cyl.su2
MESH_FORMAT= SU2
SOLUTION_FILENAME= restart_flow_gy.dat 
RESTART_FILENAME= restart_flow_gy.dat 
TABULAR_FORMAT= TECPLOT
CONV_FILENAME= convergence
VOLUME_FILENAME= soln_volume
SURFACE_FILENAME= soln_surface     
OUTPUT_WRT_FREQ= 2500
SCREEN_OUTPUT= (INNER_ITER, RMS_DENSITY_0, RMS_DENSITY_1, RMS_DENSITY_2, RMS_DENSITY_3, RMS_DENSITY_4, RMS_DENSITY_5, RMS_DENSITY_6, RMS_ENERGY, RMS_ENERGY_VE, LIFT, DRAG, TOTAL_HEATFLUX