%%%%%%%%%%%%%%%%%%%%%%%%%%%%%%%%%%%%%%%%%%%%%%%%%%%%%%%%%%%%%%%%%%%%%%%%%%%%%%%%
%                                                                              %
% SU2 configuration file                                                       %
% Case description: Quarter Concentirc Cylinder Channel w/                     %
%                        Different Interface Methods                           %
% Author: J. Kelly                                                             %
% Institution: University of Liverpool                                         %
% Date: Sep 5th, 2024                                                          %
% File Version 8.2.0 "Harrier"                                                 %
%                                                                              %
%%%%%%%%%%%%%%%%%%%%%%%%%%%%%%%%%%%%%%%%%%%%%%%%%%%%%%%%%%%%%%%%%%%%%%%%%%%%%%%%
%
MULTIZONE= YES
CONFIG_LIST=(zone_1.cfg,zone_2.cfg,zone_3.cfg)
NZONES=3
%
% ------------- DIRECT, ADJOINT, AND LINEARIZED PROBLEM DEFINITION ------------%
%
SOLVER= RANS
KIND_TURB_MODEL= SA
MATH_PROBLEM= DIRECT
RESTART_SOL= YES
%
% -------------------- COMPRESSIBLE FREE-STREAM DEFINITION --------------------%
%
MACH_NUMBER= 0.35
AOA= 0.0
FREESTREAM_PRESSURE= 100.0E+03
FREESTREAM_TEMPERATURE= 300.0
FREESTREAM_DENSITY= 1.205
FREESTREAM_OPTION= TEMPERATURE_FS
FREESTREAM_TURBULENCEINTENSITY = 0.05
FREESTREAM_TURB2LAMVISCRATIO = 100.0
INIT_OPTION= TD_CONDITIONS
%
% ---------------------- REFERENCE VALUE DEFINITION ---------------------------%
%
REF_ORIGIN_MOMENT_X = 0.00
REF_ORIGIN_MOMENT_Y = 0.00
REF_ORIGIN_MOMENT_Z = 0.00
REF_LENGTH= 1.0
REF_AREA= 1.0
REF_DIMENSIONALIZATION= DIMENSIONAL
%
% ------------------------------ EQUATION OF STATE ----------------------------%
%
FLUID_MODEL= STANDARD_AIR
%
% --------------------------- VISCOSITY MODEL ---------------------------------%
%
VISCOSITY_MODEL= SUTHERLAND
MU_REF= 1.716E-5
MU_T_REF= 273.15
SUTHERLAND_CONSTANT= 110.4
%
% --------------------------- THERMAL CONDUCTIVITY MODEL ----------------------%
%
CONDUCTIVITY_MODEL= CONSTANT_PRANDTL
%
% -------------------- BOUNDARY CONDITION DEFINITION --------------------------%
%
MARKER_HEATFLUX= (HUB1, 0.0, SHROUD1, 0.0, HUB2, 0.0, SHROUD2, 0.0, HUB3, 0.0, SHROUD3, 0.0)
MARKER_PERIODIC= (PER1, PER2, 0.0, 0.0, 0.0, 0.0, 0.0, 90.0, 0.0, 0.0, 0.0, PER4, PER3, 0.0, 0.0, 0.0, 0.0, 0.0, 90.0, 0.0, 0.0, 0.0, PER6, PER5,  0.0, 0.0, 0.0, 0.0, 0.0, 90.0, 0.0, 0.0, 0.0)
%
%-------- INFLOW/OUTFLOW BOUNDARY CONDITION SPECIFIC FOR TURBOMACHINERY --------%
%
MARKER_TURBOMACHINERY= (INFLOW, OUTMIX_0, INMIX_1, OUTMIX_1, INMIX_2, OUTFLOW)
MARKER_ZONE_INTERFACE= (OUTMIX_0, INMIX_1, OUTMIX_1, INMIX_2)
MARKER_FLUID_INTERFACE= (OUTMIX_0, INMIX_1)
MARKER_MIXINGPLANE_INTERFACE= (OUTMIX_1, INMIX_2)
MARKER_GILES= (INFLOW, TOTAL_CONDITIONS_PT, 104E+03, 300, 1.0, 0.0, 0.0, 1.0, 0.0, OUTMIX_1, MIXING_OUT, 0.0, 0.0, 0.0, 0.0, 0.0, 1.0, 0.0, INMIX_2, MIXING_IN, 0.0, 0.0, 0.0, 0.0, 0.0, 1.0, 0.0, OUTFLOW,  STATIC_PRESSURE_1D, 90.0E+03, 0.0, 0.0, 0.0, 0.0, 1.0, 0.0)
GILES_EXTRA_RELAXFACTOR= (0.05, 0.05)
SPATIAL_FOURIER= NO
%
%---------------------------- TURBOMACHINERY SIMULATION -----------------------------%
%
TURBOMACHINERY_KIND= AXIAL, AXIAL, AXIAL
TURBO_PERF_KIND= (TURBINE, TURBINE, TURBINE)
MIXINGPLANE_INTERFACE_KIND= LINEAR_INTERPOLATION
TURBULENT_MIXINGPLANE= YES
RAMP_OUTLET_PRESSURE= NO
AVERAGE_PROCESS_KIND= MIXEDOUT
PERFORMANCE_AVERAGE_PROCESS_KIND= MIXEDOUT
MIXEDOUT_COEFF= (1.0, 1.0E-05, 100)
AVERAGE_MACH_LIMIT= 0.05
%
% ------------- COMMON PARAMETERS DEFINING THE NUMERICAL METHOD ---------------%
%
NUM_METHOD_GRAD= WEIGHTED_LEAST_SQUARES
CFL_NUMBER= 2.0
CFL_ADAPT= YES
CFL_ADAPT_PARAM= ( 0.99, 1.01, 1.0, 20, 1E-4)
%
% ------------------------ LINEAR SOLVER DEFINITION ---------------------------%
%
LINEAR_SOLVER= FGMRES
LINEAR_SOLVER_PREC= LU_SGS
LINEAR_SOLVER_ERROR= 1E-4
LINEAR_SOLVER_ITER= 5
%
% ----------------------- SLOPE LIMITER DEFINITION ----------------------------%
%
VENKAT_LIMITER_COEFF= 0.01
LIMITER_ITER= 999999
%
% -------------------- FLOW NUMERICAL METHOD DEFINITION -----------------------%
%
CONV_NUM_METHOD_FLOW= ROE
MUSCL_FLOW= NO
SLOPE_LIMITER_FLOW= VENKATAKRISHNAN_WANG
TIME_DISCRE_FLOW= EULER_IMPLICIT
%
% -------------------- TURBULENT NUMERICAL METHOD DEFINITION ------------------%
%
CONV_NUM_METHOD_TURB= SCALAR_UPWIND
MUSCL_TURB= NO
SLOPE_LIMITER_TURB= VENKATAKRISHNAN
TIME_DISCRE_TURB= EULER_IMPLICIT
CFL_REDUCTION_TURB= 1.0
%
% --------------------------- CONVERGENCE PARAMETERS --------------------------%
%
OUTER_ITER= 10
CONV_FIELD= RMS_DENSITY
CONV_RESIDUAL_MINVAL= -10
CONV_STARTITER= 0
CONV_CAUCHY_ELEMS= 999
CONV_CAUCHY_EPS= 1E-6
SCREEN_OUTPUT= (OUTER_ITER, RMS_DENSITY[0], RMS_DENSITY[1], RMS_DENSITY[2])
OUTPUT_FILES= RESTART
%
% ------------------------- INPUT/OUTPUT INFORMATION --------------------------%
%
MESH_FILENAME= three_zone_quarter_cyl.su2
MESH_FORMAT= SU2
MESH_OUT_FILENAME= mesh_out.su2
SOLUTION_FILENAME= solution_flow.dat
SOLUTION_ADJ_FILENAME= solution_adj.dat
TABULAR_FORMAT= TECPLOT
CONV_FILENAME= history
RESTART_FILENAME= restart_flow.dat
RESTART_ADJ_FILENAME= restart_adj.dat
VOLUME_FILENAME= flow
VOLUME_ADJ_FILENAME= adjoint
GRAD_OBJFUNC_FILENAME= of_grad.dat
SURFACE_FILENAME= surface_flow
SURFACE_ADJ_FILENAME= surface_adjoint
OUTPUT_WRT_FREQ= 100
HISTORY_WRT_FREQ_OUTER= 1
WRT_ZONE_CONV= NO
WRT_ZONE_HIST= YES
