%%%%%%%%%%%%%%%%%%%%%%%%%%%%%%%%%%%%%%%%%%%%%%%%%%%%%%%%%%%%%%%%%%%%%%%%%%%%%%%%
%                                                                              %
% SU2 configuration file                                                       %
% Case description: Mach 5 viscous flow over a 10deg wedge                     %
% Author: C. Garbacz                                                           %
% Institution: Strathclyde University                                          %
% Date: 2020.11.01                                                             %
% File Version 8.0.0 "Harrier"                                                 %
%                                                                              %
%%%%%%%%%%%%%%%%%%%%%%%%%%%%%%%%%%%%%%%%%%%%%%%%%%%%%%%%%%%%%%%%%%%%%%%%%%%%%%%%

% ------------- DIRECT, ADJOINT, AND LINEARIZED PROBLEM DEFINITION ------------%
%
SOLVER= NEMO_NAVIER_STOKES
GAS_MODEL= air_5
GAS_COMPOSITION= (0.0, 0.0, 0.0, 0.77, 0.23)
MATH_PROBLEM= DIRECT
RESTART_SOL= NO

% ----------- COMPRESSIBLE AND INCOMPRESSIBLE FREE-STREAM DEFINITION ----------%
%
MACH_NUMBER= 5
AOA= 0.0
SIDESLIP_ANGLE= 0.0
INIT_OPTION= TD_CONDITIONS
FREESTREAM_PRESSURE= 10.0
FREESTREAM_TEMPERATURE= 288.15
FREESTREAM_TEMPERATURE_VE= 288.15
REYNOLDS_NUMBER= 10000
KIND_TURB_MODEL= NONE

% ---- NONEQUILIBRIUM GAS, IDEAL GAS, POLYTROPIC, VAN DER WAALS AND PENG ROBINSON CONSTANTS -------%
%
FLUID_MODEL= MUTATIONPP

% -------------------- BOUNDARY CONDITION DEFINITION --------------------------%
%
MARKER_EULER= ( Euler)
MARKER_ISOTHERMAL= (Wall, 300)
MARKER_OUTLET= ( Exit, 5 )
MARKER_FAR= ( Farfield, Inlet )
MARKER_PLOTTING= (NONE )
MARKER_MONITORING= ( Wall )

% ------------- COMMON PARAMETERS DEFINING THE NUMERICAL METHOD ---------------%
%
NUM_METHOD_GRAD= WEIGHTED_LEAST_SQUARES
CFL_NUMBER= 0.5
ITER= 11
LINEAR_SOLVER= BCGSTAB
LINEAR_SOLVER_ERROR= 1E-6
LINEAR_SOLVER_ITER= 5

% -----------------------------------------------------------------------%
%
CONV_NUM_METHOD_FLOW= AUSM
MUSCL_FLOW= YES
SLOPE_LIMITER_FLOW= VENKATAKRISHNAN
VENKAT_LIMITER_COEFF= 0.05
TIME_DISCRE_FLOW= EULER_EXPLICIT

% --------------------------- CONVERGENCE PARAMETERS --------------------------%
%
CONV_RESIDUAL_MINVAL= -15
CONV_STARTITER= 10

% ------------------------- INPUT/OUTPUT INFORMATION --------------------------%
%
MESH_FILENAME= viscwedge.su2
MESH_FORMAT= SU2
SOLUTION_FILENAME= restart_flow.dat  
TABULAR_FORMAT= TECPLOT
CONV_FILENAME= convergence
RESTART_FILENAME= restart_flow.dat
VOLUME_FILENAME= soln_volume
SURFACE_FILENAME= soln_surface     
OUTPUT_WRT_FREQ= 100
OUTPUT_FILES= (RESTART_ASCII, PARAVIEW_ASCII)
