%%%%%%%%%%%%%%%%%%%%%%%%%%%%%%%%%%%%%%%%%%%%%%%%%%%%%%%%%%%%%%%%%%%%%%%%%%%%%%%%
%                                                                              %
% SU2 configuration file                                                       %
% Case description: Transonic inviscid flow around a NACA0012 airfoil          %
% Author: Thomas D. Economon                                                   %
% Institution: Stanford University                                             %
% Date: 2014.06.11                                                             %
% File Version 8.0.0 "Harrier"                                                 %
%                                                                              %
%%%%%%%%%%%%%%%%%%%%%%%%%%%%%%%%%%%%%%%%%%%%%%%%%%%%%%%%%%%%%%%%%%%%%%%%%%%%%%%%

% ------------- DIRECT, ADJOINT, AND LINEARIZED PROBLEM DEFINITION ------------%
%
SOLVER= EULER
MATH_PROBLEM= DIRECT
RESTART_SOL= NO

% ----------- COMPRESSIBLE AND INCOMPRESSIBLE FREE-STREAM DEFINITION ----------%
%
MACH_NUMBER= 0.5
AOA= 2.0
FREESTREAM_PRESSURE= 101325.0
FREESTREAM_TEMPERATURE= 288.15

% ---------------------- REFERENCE VALUE DEFINITION ---------------------------%
%
REF_ORIGIN_MOMENT_X = 0.25
REF_ORIGIN_MOMENT_Y = 0.00
REF_ORIGIN_MOMENT_Z = 0.00
REF_LENGTH= 1.0
REF_AREA= 1.0

% ----------------------- BOUNDARY CONDITION DEFINITION -----------------------%
%
MARKER_EULER= ( airfoil )
MARKER_FAR= ( farfield )

% ------------------------ SURFACES IDENTIFICATION ----------------------------%
%
MARKER_PLOTTING = ( airfoil )
MARKER_MONITORING = ( airfoil )
MARKER_DESIGNING = ( airfoil )


% --------------------- INVERSE DESIGN SIMULATION -----------------------------%
%
INV_DESIGN_CP= YES
INV_DESIGN_HEATFLUX= NO

% ------------- COMMON PARAMETERS TO DEFINE THE NUMERICAL METHOD --------------%
%
NUM_METHOD_GRAD= WEIGHTED_LEAST_SQUARES
OBJECTIVE_FUNCTION= INVERSE_DESIGN_PRESSURE
CFL_NUMBER= 2.0
ITER= 250

% ------------------------ LINEAR SOLVER DEFINITION ---------------------------%
%
LINEAR_SOLVER= FGMRES
LINEAR_SOLVER_PREC= LU_SGS
LINEAR_SOLVER_ERROR= 1E-6
LINEAR_SOLVER_ITER= 5

% -------------------------- MULTIGRID PARAMETERS -----------------------------%
%
MGLEVEL= 3
MGCYCLE= W_CYCLE
MG_PRE_SMOOTH= ( 1, 2, 3, 3 )
MG_POST_SMOOTH= ( 0, 0, 0, 0 )
MG_CORRECTION_SMOOTH= ( 0, 0, 0, 0 )
MG_DAMP_RESTRICTION= 1.0
MG_DAMP_PROLONGATION= 1.0

% -------------------- FLOW NUMERICAL METHOD DEFINITION -----------------------%
%
CONV_NUM_METHOD_FLOW= JST
JST_SENSOR_COEFF= ( 0.5, 0.02 )
TIME_DISCRE_FLOW= EULER_IMPLICIT

% ---------------- ADJOINT-FLOW NUMERICAL METHOD DEFINITION -------------------%
%
CONV_NUM_METHOD_ADJFLOW= JST
ADJ_JST_SENSOR_COEFF= ( 0.5, 0.02 )
CFL_REDUCTION_ADJFLOW= 0.5
TIME_DISCRE_ADJFLOW= EULER_IMPLICIT

% ----------------------- DESIGN VARIABLE PARAMETERS --------------------------%
%
DV_KIND= HICKS_HENNE
DV_MARKER= ( airfoil )
DV_PARAM= ( 1, 0.5 )
DV_VALUE= 0.01

% ------------------------ GRID DEFORMATION PARAMETERS ------------------------%
%
DEFORM_LINEAR_SOLVER_ITER= 500
DEFORM_NONLINEAR_ITER= 1
DEFORM_CONSOLE_OUTPUT= YES
DEFORM_LINEAR_SOLVER_ERROR= 1E-14
DEFORM_STIFFNESS_TYPE= INVERSE_VOLUME

% --------------------------- CONVERGENCE PARAMETERS --------------------------%
%
CONV_RESIDUAL_MINVAL= -8
CONV_STARTITER= 10
CONV_CAUCHY_ELEMS= 100
CONV_CAUCHY_EPS= 1E-6

% ------------------------- INPUT/OUTPUT INFORMATION --------------------------%
%
MESH_FILENAME= mesh_NACA0012_inv_FFD.su2
MESH_FORMAT= SU2
MESH_OUT_FILENAME= mesh_out.su2
SOLUTION_FILENAME= solution_flow.dat
SOLUTION_ADJ_FILENAME= solution_adj.dat
TABULAR_FORMAT= CSV
CONV_FILENAME= history
RESTART_FILENAME= restart_flow.dat
RESTART_ADJ_FILENAME= restart_adj.dat
VOLUME_FILENAME= flow
VOLUME_ADJ_FILENAME= adjoint
GRAD_OBJFUNC_FILENAME= of_grad.dat
SURFACE_FILENAME= surface_flow
SURFACE_ADJ_FILENAME= surface_adjoint
OUTPUT_WRT_FREQ= 250

% --------------------- OPTIMAL SHAPE DESIGN DEFINITION -----------------------%
%
OPT_OBJECTIVE= INVERSE_DESIGN_PRESSURE * 0.001
OPT_CONSTRAINT= NONE
OPT_ITERATIONS= 100
OPT_ACCURACY= 1E-6
OPT_BOUND_UPPER= 0.1
OPT_BOUND_LOWER= -0.1
DEFINITION_DV= ( 19, 1.0 | airfoil | BOX, 0, 0, 0.0, 1.0 ); ( 19, 1.0 | airfoil | BOX, 1, 0, 0.0, 1.0 ); ( 19, 1.0 | airfoil | BOX, 2, 0, 0.0, 1.0 ); ( 19, 1.0 | airfoil | BOX, 3, 0, 0.0, 1.0 ); ( 19, 1.0 | airfoil | BOX, 4, 0, 0.0, 1.0 ); ( 19, 1.0 | airfoil | BOX, 5, 0, 0.0, 1.0 ); ( 19, 1.0 | airfoil | BOX, 6, 0, 0.0, 1.0 ); ( 19, 1.0 | airfoil | BOX, 7, 0, 0.0, 1.0 ); ( 19, 1.0 | airfoil | BOX, 8, 0, 0.0, 1.0 ); ( 19, 1.0 | airfoil | BOX, 9, 0, 0.0, 1.0 ); ( 19, 1.0 | airfoil | BOX, 10, 0, 0.0, 1.0 ); ( 19, 1.0 | airfoil | BOX, 0, 1, 0.0, 1.0 ); ( 19, 1.0 | airfoil | BOX, 1, 1, 0.0, 1.0 ); ( 19, 1.0 | airfoil | BOX, 2, 1, 0.0, 1.0 ); ( 19, 1.0 | airfoil | BOX, 3, 1, 0.0, 1.0 ); ( 19, 1.0 | airfoil | BOX, 4, 1, 0.0, 1.0 ); ( 19, 1.0 | airfoil | BOX, 5, 1, 0.0, 1.0 ); ( 19, 1.0 | airfoil | BOX, 6, 1, 0.0, 1.0 ); ( 19, 1.0 | airfoil | BOX, 7, 1, 0.0, 1.0 ); ( 19, 1.0 | airfoil | BOX, 8, 1, 0.0, 1.0 ); ( 19, 1.0 | airfoil | BOX, 9, 1, 0.0, 1.0 ); ( 19, 1.0 | airfoil | BOX, 10, 1, 0.0, 1.0 )
